Version 4
SHEET 1 3292 1284
WIRE 1600 -32 1504 -32
WIRE 2096 -32 2048 -32
WIRE 1536 0 1504 0
WIRE 2368 0 2192 0
WIRE 1136 32 1104 32
WIRE 1536 32 1504 32
WIRE 2368 32 2336 32
WIRE 2368 64 2304 64
WIRE 1648 96 1648 80
WIRE 1680 96 1648 96
WIRE 448 128 -128 128
WIRE 464 128 448 128
WIRE 560 128 544 128
WIRE 592 128 560 128
WIRE 1024 128 960 128
WIRE 1136 128 1024 128
WIRE 1568 128 1504 128
WIRE 1680 128 1568 128
WIRE 2144 128 2048 128
WIRE 2192 128 2192 0
WIRE 2192 128 2144 128
WIRE 2240 128 2192 128
WIRE 2336 128 2336 32
WIRE 2336 128 2320 128
WIRE 2368 128 2336 128
WIRE 2880 128 2736 128
WIRE 576 160 576 96
WIRE 592 160 576 160
WIRE 1088 160 1088 96
WIRE 1136 160 1088 160
WIRE 1536 160 1504 160
WIRE 1616 160 1616 80
WIRE 1680 160 1616 160
WIRE 2880 160 2880 128
WIRE -128 192 -128 128
WIRE -128 288 -128 272
WIRE 224 288 -128 288
WIRE 768 288 768 256
WIRE 768 288 224 288
WIRE 1104 288 1104 32
WIRE 1104 288 768 288
WIRE 1312 288 1312 256
WIRE 1312 288 1104 288
WIRE 1856 288 1856 256
WIRE 1856 288 1312 288
WIRE 2544 288 2544 256
WIRE 2544 288 1856 288
WIRE 2880 288 2880 240
WIRE 2880 288 2544 288
WIRE 224 320 224 288
WIRE 1664 432 1632 432
WIRE 1680 432 1664 432
WIRE 2336 432 2336 128
WIRE 2368 432 2336 432
WIRE 560 448 560 128
WIRE 592 448 560 448
WIRE 1136 448 1088 448
WIRE 1680 464 1632 464
WIRE 1136 480 1088 480
WIRE 1632 496 1632 464
WIRE 1680 496 1632 496
WIRE 1632 528 1632 496
WIRE 2112 560 2048 560
WIRE 2192 560 2192 128
WIRE 2368 560 2192 560
WIRE 448 576 448 128
WIRE 592 576 448 576
WIRE 1104 576 1072 576
WIRE -176 592 -176 560
WIRE -48 592 -48 560
WIRE 1664 592 1664 432
WIRE 1680 592 1664 592
WIRE 2096 592 2096 -32
WIRE 2096 592 2048 592
WIRE 2112 592 2096 592
WIRE 2368 592 2320 592
WIRE 2832 592 2736 592
WIRE 592 608 560 608
WIRE 992 608 960 608
WIRE 1008 608 992 608
WIRE 1104 608 1104 576
WIRE 1136 608 1104 608
WIRE 1600 608 1600 -32
WIRE 1600 608 1504 608
WIRE 64 624 64 560
WIRE 176 656 176 560
WIRE 288 688 288 560
WIRE -176 768 -176 672
WIRE -48 768 -48 672
WIRE -48 768 -176 768
WIRE 64 768 64 704
WIRE 64 768 -48 768
WIRE 176 768 176 736
WIRE 176 768 64 768
WIRE 288 768 176 768
WIRE 768 768 768 736
WIRE 768 768 288 768
WIRE 1312 768 1312 736
WIRE 1312 768 768 768
WIRE 1856 768 1856 720
WIRE 1856 768 1312 768
WIRE 2544 768 2544 720
WIRE 2544 768 1856 768
WIRE 1312 784 1312 768
FLAG 224 320 0
FLAG 1312 784 0
FLAG 1536 160 P5V0
FLAG 560 608 P5V0
FLAG 2320 592 P5V0
FLAG 1024 128 Vboost
FLAG 1568 128 Vbuck
FLAG 2144 128 Vreg
FLAG 2304 64 Vboost
FLAG 1632 432 P5V0
FLAG 1632 528 0
FLAG 2112 560 Vreg
FLAG 2112 592 Vfb
FLAG 1536 32 Vfb
FLAG 2880 128 Vout
FLAG -128 128 Vin
FLAG 1088 448 VReg
FLAG 1088 480 Vbuck
FLAG 992 608 Iin
FLAG 2832 592 Iout
FLAG 1072 576 P5V0
FLAG -48 560 S1
FLAG 64 560 S2
FLAG 176 560 S3
FLAG 288 560 S4
FLAG 576 96 S1
FLAG 1088 96 S2
FLAG 1616 80 S3
FLAG 1648 80 P5V0
FLAG -176 560 S0
SYMBOL Current_sense 768 656 R0
SYMATTR InstName X2
SYMBOL Stage_1_Boost_controller 768 176 R0
SYMATTR InstName X3
SYMBOL res 560 112 R90
WINDOW 0 -36 76 VBottom 2
WINDOW 3 -43 66 VTop 2
SYMATTR InstName R1
SYMATTR Value 20m
SYMBOL Stage_3_Regulator_controller 1856 176 R0
SYMATTR InstName X17
SYMBOL Stage_4_Reverse_current_protection 2544 176 R0
SYMATTR InstName X18
SYMBOL Current_sense 2544 640 R0
SYMATTR InstName X19
SYMBOL res 2336 112 R90
WINDOW 0 79 49 VBottom 2
WINDOW 3 32 56 VTop 2
SYMATTR InstName R2
SYMATTR Value 20m
SYMBOL Stage_2_Dual_buck_controller 1312 176 R0
SYMATTR InstName X4
SYMBOL Stage_3_Digital_feedback 1856 640 R0
SYMATTR InstName X6
SYMATTR SpiceLine Vfb_ref=0 Vwanted=15
SYMBOL Stage_2_active_feedback 1312 656 R0
SYMATTR InstName X5
SYMBOL voltage -128 176 R0
WINDOW 3 24 44 Left 2
WINDOW 123 0 0 Left 0
WINDOW 39 24 72 Left 2
SYMATTR Value 12
SYMATTR InstName V1
SYMBOL voltage -48 576 R0
WINDOW 3 0 210 Left 2
WINDOW 123 0 0 Left 0
WINDOW 39 24 72 Left 2
SYMATTR Value PULSE(0 5 10m 0 0 90m 100m 1)
SYMATTR InstName V2
SYMBOL voltage 64 608 R0
WINDOW 3 0 210 Left 2
WINDOW 123 0 0 Left 0
WINDOW 39 24 72 Left 2
SYMATTR Value PULSE(0 5 20m 0 0 80m 100m 1)
SYMATTR InstName V3
SYMBOL voltage 176 640 R0
WINDOW 3 0 210 Left 2
WINDOW 123 0 0 Left 0
WINDOW 39 24 72 Left 2
SYMATTR Value PULSE(0 5 30m 0 0 70m 100m 1)
SYMATTR InstName V4
SYMBOL voltage 288 672 R0
WINDOW 3 0 210 Left 2
WINDOW 123 0 0 Left 0
WINDOW 39 24 72 Left 2
SYMATTR Value PULSE(0 5 40m 0 0 60m 100m 1)
SYMATTR InstName V5
SYMBOL voltage -176 576 R0
WINDOW 3 -16 306 Left 2
WINDOW 123 0 0 Left 0
WINDOW 39 24 72 Left 2
SYMATTR Value PULSE(0 5 0 1m 0 90m 100m 1)
SYMATTR InstName V6
SYMBOL current 2880 160 R0
WINDOW 123 0 0 Left 0
WINDOW 39 0 0 Left 0
SYMATTR InstName I1
SYMATTR Value PULSE(0 2 50m 0 0 50m 100m 1)
TEXT -160 904 Left 2 !.tran 0 100m 0 startup
