Version 4
SHEET 1 880 680
WIRE -112 -160 -240 -160
WIRE 256 -160 -112 -160
WIRE 432 -160 256 -160
WIRE 256 -112 256 -160
WIRE 128 -48 64 -48
WIRE -32 16 -176 16
WIRE 64 16 64 -48
WIRE 128 16 64 16
WIRE -112 48 -112 -160
WIRE 464 48 384 48
WIRE -176 64 -176 16
WIRE -144 64 -176 64
WIRE -32 80 -32 16
WIRE -32 80 -80 80
WIRE 64 80 -32 80
WIRE 128 80 64 80
WIRE -144 96 -240 96
WIRE 64 144 64 80
WIRE 128 144 64 144
WIRE 128 208 80 208
WIRE 432 208 432 -160
WIRE 432 208 384 208
WIRE 128 272 -240 272
WIRE -112 400 -112 112
WIRE -112 400 -240 400
WIRE 80 400 80 208
WIRE 80 400 -112 400
WIRE 192 400 192 320
WIRE 192 400 80 400
WIRE 320 400 320 320
WIRE 320 400 192 400
FLAG 464 48 Vbuffered
IOPIN 464 48 Out
FLAG -240 -160 Vin
IOPIN -240 -160 In
FLAG -240 400 GND
IOPIN -240 400 In
FLAG -240 272 output_en
IOPIN -240 272 In
FLAG -240 96 Vunbuffered
IOPIN -240 96 In
SYMBOL OpAmps\\LT1677 -112 16 R0
SYMATTR InstName U1
SYMBOL Switches\\ADG1209 256 208 R0
SYMATTR InstName U2
