Version 4
SHEET 1 1416 680
WIRE 80 48 0 48
WIRE 224 48 160 48
WIRE 0 80 0 48
WIRE 0 208 0 160
FLAG 0 208 0
FLAG 224 48 Vchirp
SYMBOL res 176 32 R90
WINDOW 0 0 56 VBottom 2
WINDOW 3 32 56 VTop 2
SYMATTR InstName R1
SYMATTR Value 50
SYMBOL bv 0 64 R0
SYMATTR InstName B1
SYMATTR Value V=sin(6.283*max(0,time - chirp_ts)*(chirp_Fs+(chirp_Fe-chirp_Fs)/(chirp_te - chirp_ts)*time/2)*time)
TEXT 40 256 Left 2 ;The following parameters are needed:\nchirp_Fs = Frequency Start\nchirp_Fe = Frequency End\nchirp_te = Time end\nchirp_ts = Time start
