Version 4
SHEET 1 1048 680
WIRE 128 112 16 112
WIRE 16 144 16 112
WIRE 16 272 16 224
FLAG 16 272 0
FLAG 16 112 Vchirp
SYMBOL chirp_generator 128 160 R0
SYMATTR InstName X1
SYMBOL res 0 128 R0
SYMATTR InstName R1
SYMATTR Value 50
TEXT 128 168 Left 2 !.param chirp_ts=0 chirp_te=10m chirp_fs=1k chirp_fe=100k chirp_amp=10m
TEXT -4 296 Left 2 !.tran 0 10m 0 1u startup
