Version 4
SHEET 1 880 680
WIRE -16 -32 -112 -32
WIRE 416 -32 64 -32
WIRE -16 32 -112 32
WIRE 144 32 64 32
WIRE 416 32 416 -32
WIRE 416 32 336 32
WIRE 416 80 416 32
WIRE 416 80 336 80
WIRE 144 128 96 128
WIRE 416 128 336 128
WIRE 416 288 336 288
WIRE 448 288 416 288
WIRE 416 320 416 288
WIRE 96 416 96 128
WIRE 96 416 32 416
WIRE 416 416 416 400
WIRE 416 416 96 416
FLAG -112 -32 Sense_p
IOPIN -112 -32 Out
FLAG -112 32 Sense_n
IOPIN -112 32 Out
FLAG 416 128 Vin
IOPIN 416 128 In
FLAG 448 288 Vout
IOPIN 448 288 Out
FLAG 32 416 GND
IOPIN 32 416 In
SYMBOL OpAmps\\LTC6102 240 144 R0
SYMATTR InstName U1
SYMBOL res 80 -48 R90
WINDOW 0 0 56 VBottom 2
WINDOW 3 -52 54 VTop 2
SYMATTR InstName R1
SYMATTR Value 20
SYMBOL res 400 304 R0
SYMATTR InstName R2
SYMATTR Value 1k
SYMBOL res 80 16 R90
WINDOW 0 83 56 VBottom 2
WINDOW 3 32 56 VTop 2
SYMATTR InstName R3
SYMATTR Value 20
