Version 4
SHEET 1 1152 680
WIRE 736 -128 -112 -128
WIRE -112 64 -112 -128
WIRE -112 64 -224 64
WIRE 128 64 -112 64
WIRE -112 96 -112 64
WIRE -112 192 -112 176
WIRE 128 192 -112 192
WIRE -112 224 -112 192
WIRE -112 224 -224 224
WIRE 128 224 -112 224
WIRE 640 224 496 224
WIRE -112 272 -112 224
WIRE 736 304 736 -128
WIRE -112 416 -112 352
WIRE 304 416 304 352
WIRE 304 416 -112 416
WIRE 736 416 736 384
WIRE 736 416 304 416
WIRE 304 464 304 416
FLAG -224 224 Vin
FLAG -224 64 Vsense_n
FLAG 304 464 0
FLAG 640 224 Vout
SYMBOL Current_sense 304 272 R0
SYMATTR InstName X1
SYMBOL res -96 192 R180
WINDOW 0 36 76 Left 2
WINDOW 3 36 40 Left 2
SYMATTR InstName R1
SYMATTR Value 0.020
SYMBOL voltage -112 256 R0
WINDOW 123 0 0 Left 0
WINDOW 39 0 0 Left 0
WINDOW 3 -417 59 Left 2
SYMATTR InstName V1
SYMATTR Value PULSE(0 20 0 1m 0 9m 10m 10)
SYMBOL current 736 304 R0
WINDOW 123 0 0 Left 0
WINDOW 39 0 0 Left 0
SYMATTR InstName I1
SYMATTR Value PULSE(0 1 3m 1m 0 6m 10m 10)
TEXT -200 426 Left 2 !.tran 10m startup
