Version 4
SHEET 1 1040 680
WIRE 368 -80 208 -80
WIRE 208 -32 208 -80
WIRE 128 32 48 32
WIRE 208 128 208 96
WIRE 288 128 208 128
WIRE 48 144 48 32
WIRE 208 144 208 128
WIRE 368 144 368 -80
WIRE 48 256 48 224
WIRE 208 256 208 224
WIRE 208 256 48 256
WIRE 368 256 368 224
WIRE 368 256 208 256
WIRE 208 272 208 256
FLAG 208 272 0
FLAG 288 128 Vout
FLAG 208 -80 Vbuck
FLAG 48 32 Vgate
SYMBOL My_NMOS 224 32 R0
SYMATTR InstName X1
SYMBOL current 208 144 R0
WINDOW 123 0 0 Left 0
WINDOW 39 0 0 Left 0
SYMATTR InstName I1
SYMATTR Value 2.1
SYMBOL voltage 368 128 R0
WINDOW 123 0 0 Left 0
WINDOW 39 0 0 Left 0
SYMATTR InstName V1
SYMATTR Value SINE(21 1 1k 0 0 0 100)
SYMBOL voltage 48 128 R0
WINDOW 3 -428 94 Left 2
WINDOW 123 0 0 Left 0
WINDOW 39 0 0 Left 0
SYMATTR InstName V2
SYMATTR Value PULSE(0 21 0 2m 0 8m 10m 10)
TEXT 0 296 Left 2 !.tran 0 10m 5m startup
