Version 4
SHEET 1 880 996
WIRE -400 -736 -800 -736
WIRE 32 -736 -400 -736
WIRE -400 -624 -400 -736
WIRE 32 -624 32 -736
WIRE -800 -576 -800 -736
WIRE -656 -576 -800 -576
WIRE -528 -576 -576 -576
WIRE -464 -576 -528 -576
WIRE -256 -576 -304 -576
WIRE -128 -576 -176 -576
WIRE -32 -576 -128 -576
WIRE 208 -576 208 -608
WIRE 304 -576 208 -576
WIRE 304 -544 304 -576
WIRE -528 -528 -528 -576
WIRE -128 -528 -128 -576
WIRE -400 -496 -400 -528
WIRE -304 -496 -304 -576
WIRE -304 -496 -400 -496
WIRE 32 -496 32 -528
WIRE 208 -496 208 -576
WIRE 208 -496 32 -496
WIRE -528 -400 -528 -464
WIRE -128 -400 -128 -464
WIRE -128 -400 -528 -400
WIRE 304 -400 304 -464
WIRE 304 -400 -128 -400
WIRE -528 -368 -528 -400
WIRE -800 -240 -800 -576
WIRE -416 -240 -800 -240
WIRE 32 -240 -304 -240
WIRE -416 -176 -416 -240
WIRE 32 -160 32 -240
WIRE -800 -128 -800 -240
WIRE -672 -128 -800 -128
WIRE -528 -128 -592 -128
WIRE -480 -128 -528 -128
WIRE 192 -128 144 -128
WIRE 304 -128 192 -128
WIRE -304 -112 -304 -240
WIRE -256 -112 -304 -112
WIRE -96 -112 -176 -112
WIRE -32 -112 -96 -112
WIRE 144 -64 144 -128
WIRE 144 -64 32 -64
WIRE 304 -48 304 -128
WIRE -416 -32 -416 -80
WIRE -304 -32 -304 -112
WIRE -304 -32 -416 -32
WIRE -528 -16 -528 -128
WIRE -96 -16 -96 -112
WIRE -528 96 -528 48
WIRE -96 96 -96 48
WIRE -96 96 -528 96
WIRE 304 96 304 32
WIRE 304 96 -96 96
WIRE -528 128 -528 96
WIRE -800 336 -800 -128
WIRE -608 336 -800 336
WIRE -400 336 -528 336
WIRE -208 336 -400 336
WIRE -48 336 -128 336
WIRE -16 336 -48 336
WIRE 96 336 -16 336
WIRE -16 384 -16 336
WIRE -800 400 -800 336
WIRE -400 400 -400 336
WIRE 96 416 96 336
WIRE -800 544 -800 480
WIRE -400 544 -400 464
WIRE -400 544 -800 544
WIRE -16 544 -16 448
WIRE -16 544 -400 544
WIRE 96 544 96 496
WIRE 96 544 -16 544
WIRE 96 560 96 544
WIRE -400 592 -400 544
FLAG -528 -368 0
FLAG -528 128 0
FLAG -400 592 0
FLAG 208 -608 Vactive1
FLAG 192 -128 Vactive2
FLAG -48 336 Vpassive
SYMBOL res -560 -592 R90
WINDOW 0 0 56 VBottom 2
WINDOW 3 32 56 VTop 2
SYMATTR InstName R2
SYMATTR Value 20
SYMBOL res -160 -592 R90
WINDOW 0 0 56 VBottom 2
WINDOW 3 32 56 VTop 2
SYMATTR InstName R3
SYMATTR Value 20
SYMBOL res -576 -144 R90
WINDOW 0 0 56 VBottom 2
WINDOW 3 32 56 VTop 2
SYMATTR InstName R4
SYMATTR Value 20
SYMBOL res -160 -128 R90
WINDOW 0 0 56 VBottom 2
WINDOW 3 32 56 VTop 2
SYMATTR InstName R5
SYMATTR Value 20
SYMBOL cap -544 -528 R0
SYMATTR InstName C1
SYMATTR Value 10µ
SYMBOL cap -144 -528 R0
SYMATTR InstName C2
SYMATTR Value 10µ
SYMBOL cap -544 -16 R0
SYMATTR InstName C3
SYMATTR Value 10µ
SYMBOL cap -112 -16 R0
SYMATTR InstName C4
SYMATTR Value 10µ
SYMBOL npn -464 -624 R0
SYMATTR InstName Q1
SYMATTR Value 2N2222
SYMBOL npn -32 -624 R0
SYMATTR InstName Q2
SYMATTR Value 2N2222
SYMBOL npn -480 -176 R0
SYMATTR InstName Q3
SYMATTR Value 2N2222
SYMBOL npn -32 -160 R0
SYMATTR InstName Q4
SYMATTR Value 2N2222
SYMBOL ind -624 352 R270
WINDOW 0 32 56 VTop 2
WINDOW 3 5 56 VBottom 2
SYMATTR InstName L1
SYMATTR Value 100µ
SYMBOL ind -224 352 R270
WINDOW 0 32 56 VTop 2
WINDOW 3 5 56 VBottom 2
SYMATTR InstName L2
SYMATTR Value 100µ
SYMBOL cap -416 400 R0
SYMATTR InstName C5
SYMATTR Value 10µ
SYMBOL cap -32 384 R0
SYMATTR InstName C6
SYMATTR Value 10µ
SYMBOL res 288 -560 R0
SYMATTR InstName R1
SYMATTR Value 1k
SYMBOL res 288 -64 R0
SYMATTR InstName R6
SYMATTR Value 1k
SYMBOL res 80 400 R0
SYMATTR InstName R7
SYMATTR Value 1k
SYMBOL voltage -800 384 R0
WINDOW 123 0 0 Left 0
WINDOW 39 0 0 Left 0
SYMATTR InstName V1
SYMATTR Value SINE(10 1 100k 0 0 0 1000)
TEXT -834 616 Left 2 !.tran 10m
