Version 4
SHEET 1 1016 680
WIRE 496 -80 304 -80
WIRE 560 -80 496 -80
WIRE 384 -48 304 -48
WIRE 384 -16 304 -16
WIRE 384 16 304 16
WIRE 384 48 304 48
WIRE 560 80 560 -80
WIRE 592 80 560 80
WIRE 784 80 752 80
WIRE 896 80 864 80
WIRE -96 112 -192 112
WIRE -64 112 -96 112
WIRE 496 112 304 112
WIRE 592 112 496 112
WIRE -192 128 -192 112
WIRE -96 144 -96 112
WIRE -64 144 -96 144
WIRE 496 144 496 112
WIRE 896 160 896 80
WIRE -192 272 -192 208
WIRE 112 272 112 240
WIRE 112 272 -192 272
WIRE 496 272 496 224
WIRE 496 272 112 272
WIRE 896 272 896 240
WIRE 896 272 496 272
WIRE -192 288 -192 272
FLAG -192 288 0
FLAG -192 112 Vin
FLAG 496 112 Vout
FLAG 384 -16 nMOS_drain
FLAG 384 16 nMOS_gate
FLAG 384 48 nMOS_source
FLAG 384 -48 FBX
FLAG 496 -80 Vinj
SYMBOL voltage -192 112 R0
WINDOW 123 0 0 Left 0
WINDOW 39 0 0 Left 0
WINDOW 3 -313 -42 Left 2
SYMATTR Value PULSE(0 {Vin} 0 1m 0 100m 101m 1)
SYMATTR InstName V1
SYMBOL Stage_1_Boost_controller 112 160 R0
SYMATTR InstName X1
SYMBOL res 480 128 R0
SYMATTR InstName R1
SYMATTR Value {Routmin}
SYMBOL inj_transformer 656 128 R0
SYMATTR InstName X2
SYMBOL voltage 896 144 R0
WINDOW 3 24 44 Left 2
WINDOW 123 24 72 Left 2
WINDOW 39 0 0 Left 0
SYMATTR Value ""
SYMATTR Value2 AC 1 0
SYMATTR InstName V2
SYMBOL res 880 64 R90
WINDOW 0 0 56 VBottom 2
WINDOW 3 32 56 VTop 2
SYMATTR InstName R2
SYMATTR Value 50
TEXT -224 424 Left 2 !.param Vin=10 Iinmax=2.1 Vinpower=Vin*Iinmax Ioutmax=Vinpower/36 Routmin=36/Ioutmax
TEXT -224 392 Left 2 !.ac dec 1K 1 100K
