Version 4
SHEET 1 1252 992
WIRE 448 -192 352 -192
WIRE 624 -192 480 -192
WIRE 1072 -192 992 -192
WIRE 416 -160 352 -160
WIRE 1072 -160 992 -160
WIRE 624 -64 544 -64
WIRE -336 -48 -368 -48
WIRE -368 -32 -368 -48
WIRE -192 -32 -368 -32
WIRE -96 -32 -192 -32
WIRE -16 -32 -96 -32
WIRE 416 -32 352 -32
WIRE 624 -32 416 -32
WIRE 1072 -32 992 -32
WIRE 1184 -32 1072 -32
WIRE 1184 -16 1184 -32
WIRE -368 0 -368 -32
WIRE -96 0 -96 -32
WIRE -16 0 -96 0
WIRE 624 0 544 0
WIRE 544 16 544 0
WIRE -368 112 -368 80
WIRE 160 112 160 96
WIRE 160 112 -368 112
WIRE 480 112 480 -192
WIRE 480 112 160 112
WIRE 544 112 544 96
WIRE 544 112 480 112
WIRE 800 112 800 96
WIRE 800 112 544 112
WIRE 1184 112 1184 64
WIRE 1184 112 800 112
WIRE 160 128 160 112
WIRE 192 256 -112 256
WIRE 416 256 416 -32
WIRE 416 256 192 256
WIRE 192 336 -64 336
WIRE 1072 336 1072 -32
WIRE 1072 336 192 336
WIRE -64 448 -64 336
WIRE -16 448 -64 448
WIRE -112 480 -112 256
WIRE -16 480 -112 480
WIRE 608 576 352 576
WIRE -192 608 -192 -32
WIRE -16 608 -192 608
WIRE 448 608 448 -192
WIRE 448 608 352 608
WIRE 160 800 160 736
FLAG 160 128 0
FLAG 160 800 0
FLAG -336 -48 P36V0
FLAG 544 -64 P36V0
FLAG 192 256 Vbuck
FLAG 192 336 Vreg
FLAG 448 608 Vfb
FLAG 608 576 Vref
FLAG 1072 -192 reg_fbx
FLAG 544 0 S1
SYMBOL Stage_2_active_feedback 160 656 R0
SYMATTR InstName X1
SYMBOL Stage_2_Buck_controller 160 16 R0
SYMATTR InstName X2
SYMBOL voltage -368 -16 R0
WINDOW 123 0 0 Left 0
WINDOW 39 0 0 Left 0
SYMATTR InstName V1
SYMATTR Value 32
SYMBOL Stage_3_Regulator_controller 800 16 R0
SYMATTR InstName X3
SYMBOL res 1168 -32 R0
SYMATTR InstName R1
SYMATTR Value 10k
SYMBOL voltage 544 0 R0
WINDOW 3 2 155 Left 2
WINDOW 123 0 0 Left 0
WINDOW 39 0 0 Left 0
SYMATTR Value PULSE(0 5 8m 1u 0 25 30 10)
SYMATTR InstName V2
TEXT -400 824 Left 2 !.ac dec 1000 1 100k
TEXT -400 912 Left 2 !.param Rfb_ratio=10 Vrefext=0
TEXT -400 944 Left 2 !.param Vrefint=0 Vwanted=Vrefint*(1+Rfb_ratio)-Rfb_ratio*Vrefext
