Version 4
SHEET 1 4452 1996
WIRE 2976 -112 2944 -112
WIRE 2352 -32 2000 -32
WIRE 2944 -32 2944 -112
WIRE 2944 -32 2640 -32
WIRE 2944 -16 2944 -32
WIRE 1776 64 1728 64
WIRE 2352 64 1776 64
WIRE 2688 64 2640 64
WIRE 2688 96 2688 64
WIRE 2944 96 2944 64
WIRE 2944 96 2688 96
WIRE 1776 128 1776 64
WIRE 2736 128 2688 128
WIRE 2352 160 2208 160
WIRE 2640 160 2624 160
WIRE 2688 160 2688 128
WIRE 2688 160 2640 160
WIRE 2864 160 2688 160
WIRE 1776 224 1776 208
WIRE 1872 224 1776 224
WIRE 2000 224 2000 -32
WIRE 2000 224 1872 224
WIRE 1776 240 1776 224
WIRE 2944 240 2944 224
WIRE 3040 240 2944 240
WIRE 2352 256 2304 256
WIRE 2672 256 2640 256
WIRE 1600 288 1472 288
WIRE 1712 288 1680 288
WIRE 2944 288 2944 240
WIRE 2304 336 2304 256
WIRE 2352 336 2304 336
WIRE 2672 432 2672 256
WIRE 2720 432 2672 432
WIRE 2832 432 2800 432
WIRE 2672 464 2672 432
WIRE 2832 464 2832 432
WIRE 1776 576 1776 336
WIRE 1776 576 1680 576
WIRE 2208 576 2208 160
WIRE 2208 576 1776 576
WIRE 2672 576 2672 528
WIRE 2672 576 2208 576
WIRE 2832 576 2832 528
WIRE 2832 576 2672 576
WIRE 2944 576 2944 352
WIRE 2944 576 2832 576
WIRE 2496 672 2448 672
WIRE 672 752 640 752
WIRE 832 752 672 752
WIRE 1056 752 928 752
WIRE 1136 752 1056 752
WIRE 1744 752 1136 752
WIRE 2000 752 1744 752
WIRE 2160 752 2000 752
WIRE 2320 752 2160 752
WIRE 2496 784 2496 672
WIRE 2912 784 2864 784
WIRE 1280 800 1248 800
WIRE 1344 800 1280 800
WIRE 1824 800 1664 800
WIRE 1664 816 1664 800
WIRE 1344 832 1344 800
WIRE 1136 848 1136 752
WIRE 2000 848 2000 752
WIRE 2320 848 2320 752
WIRE 2400 848 2320 848
WIRE 2912 848 2912 784
WIRE 2160 880 2160 752
WIRE 2704 880 2592 880
WIRE 2736 880 2704 880
WIRE 1744 896 1744 752
WIRE 1664 912 1664 896
WIRE 1712 912 1664 912
WIRE 2400 912 2320 912
WIRE 1824 928 1824 800
WIRE 1824 928 1776 928
WIRE 1344 944 1344 912
WIRE 1712 944 1344 944
WIRE 672 960 672 752
WIRE 736 960 672 960
WIRE 880 960 880 816
WIRE 880 960 816 960
WIRE 1136 960 1136 928
WIRE 1248 960 1248 800
WIRE 1248 960 1136 960
WIRE 2912 960 2912 928
WIRE 3088 960 2912 960
WIRE 3104 960 3088 960
WIRE 1136 976 1136 960
WIRE 2000 976 2000 928
WIRE 2400 976 2000 976
WIRE 1344 992 1344 944
WIRE 2912 992 2912 960
WIRE 880 1008 880 960
WIRE 3088 1024 3088 960
WIRE 2320 1040 2320 912
WIRE 2400 1040 2320 1040
WIRE 880 1120 880 1072
WIRE 880 1120 656 1120
WIRE 1136 1120 1136 1040
WIRE 1136 1120 880 1120
WIRE 1344 1120 1344 1072
WIRE 1344 1120 1136 1120
WIRE 1744 1120 1744 960
WIRE 1744 1120 1344 1120
WIRE 2160 1120 2160 944
WIRE 2160 1120 1744 1120
WIRE 2320 1120 2320 1040
WIRE 2320 1120 2160 1120
WIRE 2432 1120 2432 1088
WIRE 2432 1120 2320 1120
WIRE 2560 1120 2560 1088
WIRE 2560 1120 2432 1120
WIRE 2736 1120 2736 880
WIRE 2912 1120 2912 1072
WIRE 2912 1120 2736 1120
WIRE 3088 1120 3088 1088
WIRE 3088 1120 3040 1120
WIRE 2000 1200 2000 976
WIRE 2000 1200 1936 1200
FLAG 1728 64 Vboost
IOPIN 1728 64 In
FLAG 2352 336 FBX
IOPIN 2352 336 BiDir
FLAG 1680 576 GND
IOPIN 1680 576 In
FLAG 3040 240 Vout
IOPIN 3040 240 Out
FLAG 2736 128 Gate
IOPIN 2736 128 Out
FLAG 2976 -112 Vbuck
IOPIN 2976 -112 Out
FLAG 1472 288 SHDN_N
IOPIN 1472 288 In
FLAG 1872 224 SHDN
FLAG 2864 784 Vout
IOPIN 2864 784 In
FLAG 3104 960 FBX
IOPIN 3104 960 Out
FLAG 2704 880 Vref_buf
FLAG 640 752 Vboost
IOPIN 640 752 In
FLAG 3040 1120 GND
IOPIN 3040 1120 In
FLAG 656 1120 GND
IOPIN 656 1120 In
FLAG 1936 1200 Sel
IOPIN 1936 1200 In
FLAG 2448 672 Vboost
IOPIN 2448 672 In
FLAG 1056 752 Vboost_filtered
FLAG 1280 800 Vref
SYMBOL cap 2656 464 R0
SYMATTR InstName C2
SYMATTR Value 10p
SYMBOL res 2704 448 R270
WINDOW 0 32 56 VTop 2
WINDOW 3 0 56 VBottom 2
SYMATTR InstName R3
SYMATTR Value 7.5K
SYMBOL cap 2816 464 R0
SYMATTR InstName C3
SYMATTR Value 1000p
SYMBOL LT1575 2496 112 R0
SYMATTR InstName U1
SYMBOL My_NMOS 2960 160 R0
SYMATTR InstName X1
SYMBOL res 2928 -32 R0
SYMATTR InstName R4
SYMATTR Value 24m
SYMBOL My_capacitor 2944 336 R0
SYMATTR InstName X2
SYMBOL npn 1712 240 R0
SYMATTR InstName Q1
SYMATTR Value 2N2222
SYMBOL res 1760 112 R0
SYMATTR InstName R1
SYMATTR Value 22k
SYMBOL res 1328 816 R0
SYMATTR InstName R2
SYMATTR Value {Rref_top}
SYMBOL res 1328 976 R0
SYMATTR InstName R9
SYMATTR Value {Rref_bot}
SYMBOL res 2896 832 R0
SYMATTR InstName R10
SYMATTR Value {Rfb}
SYMBOL res 2896 976 R0
SYMATTR InstName R11
SYMATTR Value 500
SYMBOL cap 3072 1024 R0
SYMATTR InstName C5
SYMATTR Value 10µ
SYMBOL res 1696 272 R90
WINDOW 0 0 56 VBottom 2
WINDOW 3 32 56 VTop 2
SYMATTR InstName R12
SYMATTR Value 5k
SYMBOL PowerProducts\\ADG1233 2496 928 R0
SYMATTR InstName U4
SYMBOL My_capacitor 2160 928 R0
SYMATTR InstName X3
SYMBOL npn 832 816 R270
SYMATTR InstName Q2
SYMATTR Value 2N2222
SYMBOL res 832 944 R90
WINDOW 0 0 56 VBottom 2
WINDOW 3 32 56 VTop 2
SYMATTR InstName R5
SYMATTR Value 20
SYMBOL cap 864 1008 R0
SYMATTR InstName C1
SYMATTR Value 10µ
SYMBOL References\\ADR5044 1136 1008 R0
SYMATTR InstName U2
SYMBOL res 1120 832 R0
SYMATTR InstName R6
SYMATTR Value 500
SYMBOL OpAmps\\AD8613 1744 864 R0
SYMATTR InstName U3
SYMBOL res 1648 800 R0
SYMATTR InstName R7
SYMATTR Value 1k
SYMBOL res 1984 832 R0
SYMATTR InstName R8
SYMATTR Value 1k
TEXT 3080 -24 Left 2 ;Rsense:\nIt limits the current such that there is a\n 50mV drop on Rsense. So if we limit\nthe current to 2.1 Amps the resistor \nshould be ~24mOhms.
TEXT 2224 728 Left 2 ;Check the TI pdf on how to output voltages below 1.2V
TEXT 1528 1048 VLeft 2 ;Digital Potentiometer
TEXT 3032 880 Left 2 ;Digital Potentiometer
TEXT 1688 1440 Left 2 !.param Rref_top=round(Rdigital - Rref_bot)
TEXT 1688 1408 Left 2 !.param Rref_bot=round(Rdigital * Vrefext_limit/ 3.3)
TEXT 1688 1512 Left 2 !.param Rfb=max(1, round( 500*Rfb_ratio))
TEXT 2728 1240 Left 2 ;COMMENT: \nJust pass the following params\nRfb_ratio: the ratio on the 1.2V feedback resistors\nVrefext: the external voltage reference
TEXT 1344 -80 Left 2 ;This is to stop leakage from the SHDN signal to Vboost and Vbuck.\nMaking simulations better
TEXT 1688 1272 Left 2 !.param Rdigital=10k
TEXT 1688 1336 Left 2 !.param Vrefext_limit=max(0.01, min(3.3, Vrefext))
TEXT 1688 1304 Left 2 !.param Vrefint=1.2
RECTANGLE Normal 2080 640 1312 -128 2
RECTANGLE Normal 3312 944 2864 848 2
RECTANGLE Normal 3568 112 2912 -48 2
RECTANGLE Normal 1312 1088 1552 784 2
