Version 4
SHEET 1 880 680
WIRE 80 0 -160 0
WIRE 80 32 0 32
WIRE -416 64 -480 64
WIRE 80 64 -416 64
WIRE -336 96 -384 96
WIRE 80 96 -336 96
WIRE 544 96 448 96
WIRE -224 128 -288 128
WIRE -160 128 -160 0
WIRE -160 128 -224 128
WIRE -128 128 -160 128
WIRE 0 128 0 32
WIRE 0 128 -48 128
WIRE 80 128 0 128
WIRE 672 128 448 128
WIRE 736 128 672 128
WIRE -480 144 -480 64
WIRE -384 144 -384 96
WIRE -288 144 -288 128
WIRE 736 176 736 128
WIRE -480 320 -480 224
WIRE -384 320 -384 224
WIRE -384 320 -480 320
WIRE -288 320 -288 224
WIRE -288 320 -384 320
WIRE 256 320 256 256
WIRE 256 320 -288 320
WIRE 736 320 736 256
WIRE 736 320 256 320
WIRE 256 368 256 320
FLAG 544 96 Vsense
FLAG -224 128 Vreg
FLAG -336 96 Vbuck
FLAG -416 64 Vboost
FLAG 672 128 Vout
FLAG 256 368 0
SYMBOL Stage_4_Reverse_current_protection 256 176 R0
SYMATTR InstName X1
SYMBOL voltage -480 128 R0
WINDOW 123 0 0 Left 0
WINDOW 39 0 0 Left 0
SYMATTR InstName V1
SYMATTR Value 36
SYMBOL voltage -384 128 R0
WINDOW 123 0 0 Left 0
WINDOW 39 0 0 Left 0
SYMATTR InstName V2
SYMATTR Value 8
SYMBOL voltage -288 128 R0
WINDOW 123 0 0 Left 0
WINDOW 39 0 0 Left 0
SYMATTR InstName V3
SYMATTR Value 5
SYMBOL res -32 112 R90
WINDOW 0 82 56 VBottom 2
WINDOW 3 32 56 VTop 2
SYMATTR InstName R1
SYMATTR Value 20m
SYMBOL res 720 160 R0
SYMATTR InstName R2
SYMATTR Value 5
TEXT -514 330 Left 2 !.tran 10m startup
