Version 4
SHEET 1 880 680
WIRE -192 112 -384 112
WIRE -64 112 -192 112
WIRE 496 112 304 112
WIRE -64 144 -192 144
WIRE 352 144 304 144
WIRE 496 144 496 112
WIRE -384 176 -384 112
WIRE -192 176 -192 144
WIRE -384 272 -384 256
WIRE -192 272 -192 256
WIRE -192 272 -384 272
WIRE 112 272 112 240
WIRE 112 272 -192 272
WIRE 496 272 496 224
WIRE 496 272 112 272
WIRE -192 288 -192 272
FLAG -192 288 0
FLAG -192 112 Vin
FLAG 496 112 Vout
FLAG 352 144 fault_n
SYMBOL voltage -192 160 R0
WINDOW 123 0 0 Left 0
WINDOW 39 0 0 Left 0
WINDOW 3 -20 187 Left 2
SYMATTR Value PULSE(0 12 1m 1m 0 9m 10m 10)
SYMATTR InstName V1
SYMBOL res 480 128 R0
SYMATTR InstName R1
SYMATTR Value 12
SYMATTR SpiceLine pwr=100
SYMBOL Stage_0_Reverse_Voltage_Protection 112 160 R0
SYMATTR InstName X2
SYMBOL voltage -384 160 R0
WINDOW 123 0 0 Left 0
WINDOW 39 0 0 Left 0
SYMATTR InstName V2
SYMATTR Value 12
TEXT -224 312 Left 2 !.tran 0 10m 4m
TEXT -224 376 Left 2 !.meas heat AVG Ix(x2:Vin)*V(Vin)+Ix(x2:Vout)*V(Vout)
