Version 4
SHEET 1 1636 680
WIRE -192 -80 -304 -80
WIRE 384 -48 304 -48
WIRE -304 -32 -304 -80
WIRE 384 -16 304 -16
WIRE 496 16 304 16
WIRE -192 80 -192 -80
WIRE -96 80 -192 80
WIRE -64 80 -96 80
WIRE 496 80 496 16
WIRE 768 80 496 80
WIRE 960 80 928 80
WIRE 1072 80 1040 80
WIRE -64 112 -192 112
WIRE 496 112 304 112
WIRE 768 112 496 112
WIRE -192 128 -192 112
WIRE -96 144 -96 80
WIRE -64 144 -96 144
WIRE 496 144 496 112
WIRE 1072 160 1072 80
WIRE -304 272 -304 48
WIRE -192 272 -192 208
WIRE -192 272 -304 272
WIRE 112 272 112 240
WIRE 112 272 -192 272
WIRE 496 272 496 224
WIRE 496 272 112 272
WIRE 1072 272 1072 240
WIRE 1072 272 496 272
WIRE -192 288 -192 272
FLAG -192 288 0
FLAG -192 112 Vin
FLAG 496 112 Vout
FLAG 384 -16 Gate
FLAG 384 -48 FBX
FLAG -304 -80 Vpower
SYMBOL voltage -192 112 R0
WINDOW 123 0 0 Left 0
WINDOW 39 0 0 Left 0
WINDOW 3 -424 17 Left 2
SYMATTR Value PULSE(36 0 5m 5m 0 0 100m 1)
SYMATTR InstName V1
SYMBOL Stage_3_Regulator_controller 112 160 R0
SYMATTR InstName X1
SYMBOL voltage -304 -48 R0
WINDOW 3 24 44 Left 2
WINDOW 123 0 0 Left 0
WINDOW 39 0 0 Left 0
SYMATTR Value 36
SYMATTR InstName V2
SYMBOL current 496 144 R0
WINDOW 123 0 0 Left 0
WINDOW 39 0 0 Left 0
SYMATTR InstName I1
SYMATTR Value PULSE(0 2.1 5m 1m 0 8m 10m 10)
SYMBOL inj_transformer 832 128 R0
SYMATTR InstName X2
SYMBOL voltage 1072 144 R0
WINDOW 3 24 44 Left 2
WINDOW 123 24 72 Left 2
WINDOW 39 0 0 Left 0
SYMATTR Value ""
SYMATTR Value2 AC 1 0
SYMATTR InstName V3
SYMBOL res 1056 64 R90
WINDOW 0 0 56 VBottom 2
WINDOW 3 32 56 VTop 2
SYMATTR InstName R1
SYMATTR Value 50
TEXT -232 368 Left 2 !.ac dec 1k 1 100k
TEXT -232 400 Left 2 !.param Rfb_ratio=1 Vrefext=0
TEXT -232 432 Left 2 !.param Vrefint=1.2 Vwanted=Vrefint*(1+Rfb_ratio)-Rfb_ratio*Vrefext
