Version 4
SHEET 1 2164 776
WIRE 976 -384 944 -384
WIRE 944 -336 944 -384
WIRE 944 -336 896 -336
WIRE 1424 -336 944 -336
WIRE 976 -304 896 -304
WIRE 464 -176 400 -176
WIRE 528 -176 464 -176
WIRE 976 -176 896 -176
WIRE 496 -144 400 -144
WIRE 528 -144 496 -144
WIRE 704 -16 704 -48
WIRE 704 -16 432 -16
WIRE 1008 208 976 208
WIRE 464 240 464 -176
WIRE 528 240 464 240
WIRE 976 240 976 208
WIRE 976 240 896 240
WIRE 1168 240 976 240
WIRE 496 272 496 -144
WIRE 528 272 496 272
WIRE 1424 272 1424 -336
WIRE 1424 272 1360 272
WIRE 1168 304 1104 304
WIRE 1168 336 1104 336
WIRE 432 416 432 -16
WIRE 432 416 400 416
WIRE 704 416 704 368
WIRE 704 416 432 416
WIRE 1264 416 1264 400
WIRE 1264 416 704 416
FLAG 400 -176 Vin
IOPIN 400 -176 In
FLAG 400 416 GND
IOPIN 400 416 In
FLAG 400 -144 SHDN_N
IOPIN 400 -144 BiDir
FLAG 976 -176 Vout
IOPIN 976 -176 Out
FLAG 976 -304 Gate
IOPIN 976 -304 Out
FLAG 976 -384 FBX
IOPIN 976 -384 BiDir
FLAG 1008 208 P5V0
IOPIN 1008 208 Out
FLAG 1104 336 EXT_FB_ENA
IOPIN 1104 336 In
FLAG 1104 304 EXT_FB
IOPIN 1104 304 In
SYMBOL Stage_2_Buck_controller 704 -128 R0
SYMATTR InstName X1
SYMBOL Stage_2_Buck_controller 704 288 R0
SYMATTR InstName X2
SYMBOL buffer_with_floating_output 1200 320 R0
SYMATTR InstName X3
