Version 4
SHEET 1 1000 680
WIRE -144 112 -192 112
WIRE -96 112 -144 112
WIRE -64 112 -96 112
WIRE 560 112 304 112
WIRE 656 112 560 112
WIRE -192 128 -192 112
WIRE -96 144 -96 112
WIRE -64 144 -96 144
WIRE 352 144 304 144
WIRE 560 144 560 112
WIRE 656 144 656 112
WIRE 352 160 352 144
WIRE -192 272 -192 208
WIRE 112 272 112 240
WIRE 112 272 -192 272
WIRE 352 272 352 240
WIRE 352 272 112 272
WIRE 560 272 560 224
WIRE 560 272 352 272
WIRE 656 272 656 224
WIRE 656 272 560 272
WIRE -192 288 -192 272
FLAG -192 288 0
FLAG -144 112 Vin
FLAG 656 112 Vout
FLAG 352 144 fault_n
SYMBOL voltage -192 112 R0
WINDOW 123 0 0 Left 0
WINDOW 39 0 0 Left 0
WINDOW 0 41 30 Left 2
WINDOW 3 41 54 Left 2
SYMATTR InstName V1
SYMATTR Value 10
SYMBOL res 336 144 R0
SYMATTR InstName R2
SYMATTR Value 1000
SYMBOL current 656 144 R0
WINDOW 123 0 0 Left 0
WINDOW 39 0 0 Left 0
SYMATTR InstName I1
SYMATTR Value PULSE(-10 10 0 1 0 0 0 10)
SYMBOL res 544 128 R0
SYMATTR InstName R1
SYMATTR Value 100
SYMBOL Stage_0_Reverse_Voltage_Protection 112 160 R0
SYMATTR InstName X2
TEXT -224 312 Left 2 !.tran 1
