Version 4
SHEET 1 2164 776
WIRE 448 -320 288 -320
WIRE 720 -320 448 -320
WIRE 1264 -320 720 -320
WIRE 400 -256 288 -256
WIRE 448 -256 448 -320
WIRE 944 -240 896 -240
WIRE 720 -208 720 -320
WIRE 288 -160 240 -160
WIRE 400 -160 400 -256
WIRE 400 -160 368 -160
WIRE 448 -160 448 -176
WIRE 448 -160 400 -160
WIRE 560 -160 448 -160
WIRE 896 -160 896 -240
WIRE 896 -160 880 -160
WIRE 912 -160 896 -160
WIRE 1008 -160 976 -160
WIRE -320 -80 -384 -80
WIRE -192 -80 -320 -80
WIRE 320 -80 -192 -80
WIRE 416 -80 384 -80
WIRE 560 -80 496 -80
WIRE 1008 -80 1008 -160
WIRE 1008 -80 880 -80
WIRE 1088 -80 1072 -80
WIRE 1152 -64 1120 -64
WIRE 1264 -64 1264 -320
WIRE -320 -32 -320 -80
WIRE 240 0 240 -160
WIRE 560 0 240 0
WIRE 1120 0 1120 -64
WIRE 1120 0 880 0
WIRE 1184 0 1120 0
WIRE -64 32 -128 32
WIRE -320 80 -320 48
WIRE -128 80 -128 32
WIRE -128 80 -320 80
WIRE 560 80 -128 80
WIRE 944 80 880 80
WIRE 1088 80 1088 -80
WIRE 1088 80 1024 80
WIRE 1264 80 1264 64
WIRE 1264 80 1088 80
WIRE 1328 80 1264 80
WIRE 1520 80 1456 80
WIRE 1552 80 1520 80
WIRE 1696 80 1632 80
WIRE 1760 80 1696 80
WIRE 1920 80 1760 80
WIRE -320 112 -320 80
WIRE 1088 128 1088 80
WIRE -192 160 -192 -80
WIRE 160 160 32 160
WIRE 560 160 160 160
WIRE 944 160 880 160
WIRE 160 192 160 160
WIRE 560 240 528 240
WIRE 1520 240 1520 80
WIRE 1520 240 880 240
WIRE -192 256 -192 224
WIRE -160 256 -192 256
WIRE 528 304 528 240
WIRE 1696 304 1696 80
WIRE 1696 304 528 304
WIRE -192 320 -192 256
WIRE 32 320 32 160
WIRE 160 320 160 272
WIRE 1760 320 1760 80
WIRE -320 416 -320 192
WIRE -320 416 -368 416
WIRE -192 416 -192 384
WIRE -192 416 -320 416
WIRE 32 416 32 384
WIRE 32 416 -192 416
WIRE 160 416 160 384
WIRE 160 416 32 416
WIRE 240 416 240 0
WIRE 240 416 160 416
WIRE 720 416 720 288
WIRE 720 416 240 416
WIRE 944 416 944 160
WIRE 944 416 720 416
WIRE 1088 416 1088 208
WIRE 1088 416 944 416
WIRE 1760 416 1760 384
WIRE 1760 416 1088 416
FLAG 288 -320 Vin
IOPIN 288 -320 In
FLAG -368 416 GND
IOPIN -368 416 In
FLAG 288 -256 SHDN_N
IOPIN 288 -256 BiDir
FLAG 1920 80 Vout
IOPIN 1920 80 Out
FLAG 1152 -64 Gate
IOPIN 1152 -64 Out
FLAG 944 -240 Vcc
FLAG -160 256 Vcc
FLAG -384 -80 Vout
FLAG -64 32 FBX
IOPIN -64 32 BiDir
SYMBOL My_NMOS 1280 0 R0
SYMATTR InstName X1
SYMBOL My_zenner 1088 176 M270
SYMATTR InstName X2
SYMBOL PowerProducts\\LT3724 720 32 R0
SYMATTR InstName U1
SYMBOL res 432 -272 R0
SYMATTR InstName R1
SYMATTR Value 28.7k
SYMBOL res 384 -176 R90
WINDOW 0 0 56 VBottom 2
WINDOW 3 32 56 VTop 2
SYMATTR InstName R2
SYMATTR Value 1.3k
SYMBOL res 512 -96 R90
WINDOW 0 79 49 VBottom 2
WINDOW 3 32 56 VTop 2
SYMATTR InstName R7
SYMATTR Value 200k
SYMBOL cap 384 -96 R90
WINDOW 0 86 22 VBottom 2
WINDOW 3 32 32 VTop 2
SYMATTR InstName C1
SYMATTR Value 3300p
SYMBOL cap 144 320 R0
SYMATTR InstName C2
SYMATTR Value 680p
SYMBOL cap 16 320 R0
SYMATTR InstName C3
SYMATTR Value 120p
SYMBOL res 144 176 R0
SYMATTR InstName R8
SYMATTR Value 15k
SYMBOL res -304 208 R180
WINDOW 0 36 76 Left 2
WINDOW 3 36 40 Left 2
SYMATTR InstName R9
SYMATTR Value 12k
SYMBOL res -304 64 R180
WINDOW 0 36 76 Left 2
WINDOW 3 36 40 Left 2
SYMATTR InstName R10
SYMATTR Value 38k
SYMBOL cap 1072 -96 R90
WINDOW 0 0 32 VBottom 2
WINDOW 3 32 32 VTop 2
SYMATTR InstName C4
SYMATTR Value 0.1µ
SYMBOL res 1648 64 R90
WINDOW 0 0 56 VBottom 2
WINDOW 3 32 56 VTop 2
SYMATTR InstName R4
SYMATTR Value 40m
SYMBOL cap -208 320 R0
SYMATTR InstName C6
SYMATTR Value 1µ
SYMBOL diode 912 -144 R270
WINDOW 0 32 32 VTop 2
WINDOW 3 0 32 VBottom 2
SYMATTR InstName D1
SYMBOL diode -208 160 R0
SYMATTR InstName D2
SYMBOL My_inductor 1392 80 R0
SYMATTR InstName X3
SYMBOL My_capacitor 1760 368 R0
SYMATTR InstName X4
SYMBOL res 1040 64 R90
WINDOW 0 0 56 VBottom 2
WINDOW 3 32 56 VTop 2
SYMATTR InstName R3
SYMATTR Value 10
