Version 4
SHEET 1 880 680
WIRE -112 112 -192 112
WIRE -64 112 -112 112
WIRE 496 112 304 112
WIRE -192 128 -192 112
WIRE -112 144 -112 112
WIRE -64 144 -112 144
WIRE 352 144 304 144
WIRE 496 144 496 112
WIRE 352 160 352 144
WIRE -192 272 -192 208
WIRE 112 272 112 240
WIRE 112 272 -192 272
WIRE 352 272 352 240
WIRE 352 272 112 272
WIRE 496 272 496 224
WIRE 496 272 352 272
WIRE -192 288 -192 272
FLAG -192 288 0
FLAG -192 112 Vin
FLAG 496 112 Vout
FLAG 352 144 fault_n
SYMBOL voltage -192 112 R0
WINDOW 123 0 0 Left 0
WINDOW 39 0 0 Left 0
SYMATTR InstName V1
SYMATTR Value -10
SYMBOL res 480 128 R0
SYMATTR InstName R1
SYMATTR Value 100
SYMATTR SpiceLine pwr=100
SYMBOL res 336 144 R0
SYMATTR InstName R2
SYMATTR Value 1000
SYMBOL Stage_0_Reverse_Voltage_Protection 112 160 R0
SYMATTR InstName X2
TEXT -224 312 Left 2 !.tran 10m
