Version 4
SHEET 1 880 680
WIRE 384 -48 304 -48
WIRE 384 -16 304 -16
WIRE -96 112 -192 112
WIRE -64 112 -96 112
WIRE 496 112 304 112
WIRE -192 128 -192 112
WIRE -96 144 -96 112
WIRE -64 144 -96 144
WIRE 496 144 496 112
WIRE -192 272 -192 208
WIRE 112 272 112 240
WIRE 112 272 -192 272
WIRE 496 272 496 224
WIRE 496 272 112 272
WIRE -192 288 -192 272
FLAG -192 288 0
FLAG -192 112 Vin
FLAG 496 112 Vout
FLAG 384 -16 TG
FLAG 384 -48 FBX
SYMBOL voltage -192 112 R0
WINDOW 123 0 0 Left 0
WINDOW 39 0 0 Left 0
WINDOW 3 -424 17 Left 2
SYMATTR Value PULSE(0 36 0 1m 0 100m 101m 1)
SYMATTR InstName V1
SYMBOL res 480 128 R0
SYMATTR InstName R1
SYMATTR Value 1k
SYMBOL Stage_2_Buck_controller 112 160 R0
SYMATTR InstName X1
TEXT -224 312 Left 2 !.tran 0 20m 0 startup
