Version 4
SHEET 1 4452 1996
WIRE 3120 -112 3088 -112
WIRE 2352 -32 2000 -32
WIRE 3088 -32 3088 -112
WIRE 3088 -32 2640 -32
WIRE 3088 -16 3088 -32
WIRE 1776 64 1728 64
WIRE 2352 64 1776 64
WIRE 2688 64 2640 64
WIRE 2688 96 2688 64
WIRE 3088 96 3088 64
WIRE 3088 96 2688 96
WIRE 1776 128 1776 64
WIRE 2736 128 2688 128
WIRE 2352 160 2208 160
WIRE 2640 160 2624 160
WIRE 2688 160 2688 128
WIRE 2688 160 2640 160
WIRE 2800 160 2688 160
WIRE 3008 160 2880 160
WIRE 1776 224 1776 208
WIRE 1872 224 1776 224
WIRE 2000 224 2000 -32
WIRE 2000 224 1872 224
WIRE 1776 240 1776 224
WIRE 3088 240 3088 224
WIRE 3184 240 3088 240
WIRE 2352 256 2304 256
WIRE 2672 256 2640 256
WIRE 1600 288 1472 288
WIRE 1712 288 1680 288
WIRE 3088 288 3088 240
WIRE 2304 336 2304 256
WIRE 2352 336 2304 336
WIRE 2672 432 2672 256
WIRE 2720 432 2672 432
WIRE 2848 432 2800 432
WIRE 2672 480 2672 432
WIRE 2848 480 2848 432
WIRE 1776 576 1776 336
WIRE 1776 576 1680 576
WIRE 2208 576 2208 160
WIRE 2208 576 1776 576
WIRE 2672 576 2672 544
WIRE 2672 576 2208 576
WIRE 2848 576 2848 544
WIRE 2848 576 2672 576
WIRE 3088 576 3088 352
WIRE 3088 576 2848 576
WIRE 2704 784 2656 784
WIRE 2704 848 2704 784
WIRE 2704 976 2704 928
WIRE 2896 976 2704 976
WIRE 1472 992 1440 992
WIRE 1632 992 1472 992
WIRE 2096 992 1728 992
WIRE 2352 992 2096 992
WIRE 2704 1024 2704 976
WIRE 2352 1040 2352 992
WIRE 2704 1136 2704 1104
WIRE 2896 1136 2704 1136
WIRE 2704 1168 2704 1136
WIRE 1472 1280 1472 992
WIRE 1536 1280 1472 1280
WIRE 1680 1280 1680 1056
WIRE 1680 1280 1616 1280
WIRE 2144 1296 1984 1296
WIRE 2288 1296 2288 1264
WIRE 2288 1296 2144 1296
WIRE 2432 1296 2432 1264
WIRE 2576 1296 2432 1296
WIRE 2704 1296 2704 1248
WIRE 2704 1296 2576 1296
WIRE 1984 1312 1984 1296
WIRE 2288 1312 2288 1296
WIRE 2704 1312 2704 1296
WIRE 1680 1328 1680 1280
WIRE 2144 1328 2144 1296
WIRE 2432 1328 2432 1296
WIRE 1936 1392 1904 1392
WIRE 2656 1392 2624 1392
WIRE 1680 1440 1680 1392
WIRE 1680 1440 1456 1440
WIRE 1984 1440 1984 1408
WIRE 1984 1440 1680 1440
WIRE 2144 1440 2144 1392
WIRE 2144 1440 1984 1440
WIRE 2288 1440 2288 1392
WIRE 2288 1440 2144 1440
WIRE 2432 1440 2432 1408
WIRE 2432 1440 2288 1440
WIRE 2704 1440 2704 1408
WIRE 2704 1440 2432 1440
WIRE 1680 1472 1680 1440
WIRE 1680 1600 1680 1552
WIRE 1680 1600 1456 1600
WIRE 1904 1600 1904 1392
WIRE 1904 1600 1680 1600
WIRE 2624 1600 2624 1392
WIRE 2624 1600 1904 1600
FLAG 1728 64 Vboost
IOPIN 1728 64 In
FLAG 2352 336 FBX
IOPIN 2352 336 BiDir
FLAG 1680 576 GND
IOPIN 1680 576 In
FLAG 3184 240 Vout
IOPIN 3184 240 Out
FLAG 2736 128 Gate
IOPIN 2736 128 Out
FLAG 3120 -112 Vbuck
IOPIN 3120 -112 Out
FLAG 1472 288 SHDN_N
IOPIN 1472 288 In
FLAG 1872 224 SHDN
FLAG 2656 784 Vout
IOPIN 2656 784 In
FLAG 2896 1136 FBX
IOPIN 2896 1136 Out
FLAG 1440 992 Vboost
IOPIN 1440 992 In
FLAG 1456 1440 GND
IOPIN 1456 1440 In
FLAG 2096 992 Vboost_filtered
FLAG 2576 1296 Vrefext
FLAG 1456 1600 refext_n
IOPIN 1456 1600 In
FLAG 2896 976 Vinj
IOPIN 2896 976 Out
SYMBOL LT1575 2496 112 R0
SYMATTR InstName U1
SYMBOL My_NMOS 3104 160 R0
SYMATTR InstName X1
SYMBOL res 3072 -32 R0
SYMATTR InstName R4
SYMATTR Value 24m
SYMBOL My_capacitor 3088 336 R0
SYMATTR InstName X2
SYMBOL npn 1712 240 R0
SYMATTR InstName Q1
SYMATTR Value 2N2222
SYMBOL res 1760 112 R0
SYMATTR InstName R1
SYMATTR Value 22k
SYMBOL res 2688 1008 R0
SYMATTR InstName R10
SYMATTR Value {Rfb}
SYMBOL res 2688 1152 R0
SYMATTR InstName R11
SYMATTR Value 5000
SYMBOL res 1696 272 R90
WINDOW 0 0 56 VBottom 2
WINDOW 3 32 56 VTop 2
SYMATTR InstName R12
SYMATTR Value 5k
SYMBOL npn 1632 1056 R270
SYMATTR InstName Q2
SYMATTR Value 2N2222
SYMBOL res 1632 1264 R90
WINDOW 0 0 56 VBottom 2
WINDOW 3 32 56 VTop 2
SYMATTR InstName R5
SYMATTR Value 20
SYMBOL cap 1664 1328 R0
SYMATTR InstName C1
SYMATTR Value 10µ
SYMBOL res 2304 1408 R180
WINDOW 0 -43 67 Left 2
WINDOW 3 -73 38 Left 2
SYMATTR InstName R2
SYMATTR Value {Rref}
SYMBOL res 2416 1312 R0
SYMATTR InstName R6
SYMATTR Value 500
SYMBOL cap 2128 1328 R0
SYMATTR InstName C4
SYMATTR Value 10p
SYMBOL PowerProducts\\LT3088 2352 1152 R0
SYMATTR InstName U2
SYMBOL nmos 1936 1312 R0
SYMATTR InstName M1
SYMATTR Value Si7336ADP
SYMBOL nmos 2656 1312 R0
SYMATTR InstName M2
SYMATTR Value Si7336ADP
SYMBOL res 2896 144 R90
WINDOW 0 0 56 VBottom 2
WINDOW 3 32 56 VTop 2
SYMATTR InstName R3
SYMATTR Value 50
SYMBOL res 2816 416 R90
WINDOW 0 0 56 VBottom 2
WINDOW 3 32 56 VTop 2
SYMATTR InstName R7
SYMATTR Value 7.5k
SYMBOL cap 2656 480 R0
SYMATTR InstName C2
SYMATTR Value 10p
SYMBOL cap 2832 480 R0
SYMATTR InstName C3
SYMATTR Value 1000p
SYMBOL res 2688 832 R0
SYMATTR InstName R8
SYMATTR Value 50
SYMBOL res 1664 1456 R0
SYMATTR InstName R9
SYMATTR Value 500
TEXT 3224 -24 Left 2 ;Rsense:\nIt limits the current such that there is a\n 50mV drop on Rsense. So if we limit\nthe current to 2.1 Amps the resistor \nshould be ~24mOhms.
TEXT 1792 928 Left 2 ;Check the TI pdf on how to output voltages below 1.2V
TEXT 2824 1056 Left 2 ;Digital Potentiometer
TEXT 1672 1712 Left 2 !.param Rref=round(  20k * Vrefext_limit   )
TEXT 1672 1736 Left 2 !.param Rfb=max(1, round( 5000*Rfb_ratio))
TEXT 2520 1672 Left 2 ;COMMENT: \nJust pass the following params\nRfb_ratio: the ratio on the 1.2V feedback resistors\nVrefext: the external voltage reference
TEXT 1344 -80 Left 2 ;This is to stop leakage from the SHDN signal to Vboost and Vbuck.\nMaking simulations better
TEXT 1672 1688 Left 2 !.param Vrefext_limit=max(0.01, min(3.3, Vrefext))
RECTANGLE Normal 2080 640 1312 -128 2
RECTANGLE Normal 3104 1120 2656 1024 2
RECTANGLE Normal 3712 112 3056 -48 2
