Version 4
SHEET 1 4452 1996
WIRE 2976 -112 2944 -112
WIRE 2352 -32 2000 -32
WIRE 2944 -32 2944 -112
WIRE 2944 -32 2640 -32
WIRE 2944 -16 2944 -32
WIRE 1776 64 1728 64
WIRE 2352 64 1776 64
WIRE 2688 64 2640 64
WIRE 2688 96 2688 64
WIRE 2944 96 2944 64
WIRE 2944 96 2688 96
WIRE 1776 128 1776 64
WIRE 2736 128 2688 128
WIRE 2352 160 2208 160
WIRE 2640 160 2624 160
WIRE 2688 160 2688 128
WIRE 2688 160 2640 160
WIRE 2864 160 2688 160
WIRE 1776 224 1776 208
WIRE 1872 224 1776 224
WIRE 2000 224 2000 -32
WIRE 2000 224 1872 224
WIRE 1776 240 1776 224
WIRE 2944 240 2944 224
WIRE 3040 240 2944 240
WIRE 2352 256 2304 256
WIRE 2672 256 2640 256
WIRE 1600 288 1472 288
WIRE 1712 288 1680 288
WIRE 2944 288 2944 240
WIRE 2304 336 2304 256
WIRE 2352 336 2304 336
WIRE 2672 432 2672 256
WIRE 2720 432 2672 432
WIRE 2832 432 2800 432
WIRE 2672 464 2672 432
WIRE 2832 464 2832 432
WIRE 1776 576 1776 336
WIRE 1776 576 1680 576
WIRE 2208 576 2208 160
WIRE 2208 576 1776 576
WIRE 2672 576 2672 528
WIRE 2672 576 2208 576
WIRE 2832 576 2832 528
WIRE 2832 576 2672 576
WIRE 2944 576 2944 352
WIRE 2944 576 2832 576
WIRE 2704 768 2656 768
WIRE 1472 800 1440 800
WIRE 1632 800 1472 800
WIRE 2096 800 1728 800
WIRE 2352 800 2096 800
WIRE 2704 832 2704 768
WIRE 2352 848 2352 800
WIRE 2704 944 2704 912
WIRE 2880 944 2704 944
WIRE 2896 944 2880 944
WIRE 2704 976 2704 944
WIRE 1472 1088 1472 800
WIRE 1536 1088 1472 1088
WIRE 1680 1088 1680 864
WIRE 1680 1088 1616 1088
WIRE 2160 1104 1984 1104
WIRE 2288 1104 2288 1072
WIRE 2288 1104 2160 1104
WIRE 2432 1104 2432 1072
WIRE 2544 1104 2432 1104
WIRE 2576 1104 2544 1104
WIRE 2704 1104 2704 1056
WIRE 2704 1104 2576 1104
WIRE 1984 1120 1984 1104
WIRE 2288 1120 2288 1104
WIRE 2704 1120 2704 1104
WIRE 1680 1136 1680 1088
WIRE 2160 1136 2160 1104
WIRE 2432 1136 2432 1104
WIRE 2544 1136 2544 1104
WIRE 2880 1136 2880 944
WIRE 1936 1200 1904 1200
WIRE 2656 1200 2624 1200
WIRE 1680 1248 1680 1200
WIRE 1680 1248 1456 1248
WIRE 1984 1248 1984 1216
WIRE 1984 1248 1680 1248
WIRE 2160 1248 2160 1200
WIRE 2160 1248 1984 1248
WIRE 2288 1248 2288 1200
WIRE 2288 1248 2160 1248
WIRE 2432 1248 2432 1200
WIRE 2432 1248 2288 1248
WIRE 2544 1248 2544 1216
WIRE 2544 1248 2432 1248
WIRE 2704 1248 2704 1216
WIRE 2704 1248 2544 1248
WIRE 2880 1248 2880 1200
WIRE 2880 1248 2704 1248
WIRE 1904 1296 1904 1200
WIRE 1904 1296 1456 1296
WIRE 2624 1296 2624 1200
WIRE 2624 1296 1904 1296
FLAG 1728 64 Vboost
IOPIN 1728 64 In
FLAG 2352 336 FBX
IOPIN 2352 336 BiDir
FLAG 1680 576 GND
IOPIN 1680 576 In
FLAG 3040 240 Vout
IOPIN 3040 240 Out
FLAG 2736 128 Gate
IOPIN 2736 128 Out
FLAG 2976 -112 Vbuck
IOPIN 2976 -112 Out
FLAG 1472 288 SHDN_N
IOPIN 1472 288 In
FLAG 1872 224 SHDN
FLAG 2656 768 Vout
IOPIN 2656 768 In
FLAG 2896 944 FBX
IOPIN 2896 944 Out
FLAG 1440 800 Vboost
IOPIN 1440 800 In
FLAG 1456 1248 GND
IOPIN 1456 1248 In
FLAG 2096 800 Vboost_filtered
FLAG 2576 1104 Vrefext
FLAG 1456 1296 refext_n
IOPIN 1456 1296 In
SYMBOL cap 2656 464 R0
SYMATTR InstName C2
SYMATTR Value 10p
SYMBOL res 2704 448 R270
WINDOW 0 32 56 VTop 2
WINDOW 3 0 56 VBottom 2
SYMATTR InstName R3
SYMATTR Value 7.5K
SYMBOL cap 2816 464 R0
SYMATTR InstName C3
SYMATTR Value 1000p
SYMBOL LT1575 2496 112 R0
SYMATTR InstName U1
SYMBOL My_NMOS 2960 160 R0
SYMATTR InstName X1
SYMBOL res 2928 -32 R0
SYMATTR InstName R4
SYMATTR Value 24m
SYMBOL My_capacitor 2944 336 R0
SYMATTR InstName X2
SYMBOL npn 1712 240 R0
SYMATTR InstName Q1
SYMATTR Value 2N2222
SYMBOL res 1760 112 R0
SYMATTR InstName R1
SYMATTR Value 22k
SYMBOL res 2688 816 R0
SYMATTR InstName R10
SYMATTR Value {Rfb}
SYMBOL res 2688 960 R0
SYMATTR InstName R11
SYMATTR Value 5000
SYMBOL cap 2864 1136 R0
SYMATTR InstName C5
SYMATTR Value 10µ
SYMBOL res 1696 272 R90
WINDOW 0 0 56 VBottom 2
WINDOW 3 32 56 VTop 2
SYMATTR InstName R12
SYMATTR Value 5k
SYMBOL npn 1632 864 R270
SYMATTR InstName Q2
SYMATTR Value 2N2222
SYMBOL res 1632 1072 R90
WINDOW 0 0 56 VBottom 2
WINDOW 3 32 56 VTop 2
SYMATTR InstName R5
SYMATTR Value 20
SYMBOL cap 1664 1136 R0
SYMATTR InstName C1
SYMATTR Value 10µ
SYMBOL res 2304 1216 R180
WINDOW 0 36 76 Left 2
WINDOW 3 36 40 Left 2
SYMATTR InstName R2
SYMATTR Value Rref
SYMBOL res 2528 1120 R0
SYMATTR InstName R6
SYMATTR Value 500
SYMBOL cap 2144 1136 R0
SYMATTR InstName C4
SYMATTR Value 10µ
SYMBOL cap 2416 1136 R0
SYMATTR InstName C6
SYMATTR Value 10µ
SYMBOL PowerProducts\\LT3088 2352 960 R0
SYMATTR InstName U2
SYMBOL nmos 1936 1120 R0
SYMATTR InstName M1
SYMATTR Value Si7336ADP
SYMBOL nmos 2656 1120 R0
SYMATTR InstName M2
SYMATTR Value Si7336ADP
TEXT 3080 -24 Left 2 ;Rsense:\nIt limits the current such that there is a\n 50mV drop on Rsense. So if we limit\nthe current to 2.1 Amps the resistor \nshould be ~24mOhms.
TEXT 1792 736 Left 2 ;Check the TI pdf on how to output voltages below 1.2V
TEXT 2824 864 Left 2 ;Digital Potentiometer
TEXT 1680 1392 Left 2 !.param Rref=round(  20k * Vrefext_limit   )
TEXT 1680 1416 Left 2 !.param Rfb=max(1, round( 5000*Rfb_ratio))
TEXT 2528 1320 Left 2 ;COMMENT: \nJust pass the following params\nRfb_ratio: the ratio on the 1.2V feedback resistors\nVrefext: the external voltage reference
TEXT 1344 -80 Left 2 ;This is to stop leakage from the SHDN signal to Vboost and Vbuck.\nMaking simulations better
TEXT 1680 1368 Left 2 !.param Vrefext_limit=max(0.01, min(3.3, Vrefext))
RECTANGLE Normal 2080 640 1312 -128 2
RECTANGLE Normal 3104 928 2656 832 2
RECTANGLE Normal 3568 112 2912 -48 2
