Version 4
SHEET 1 880 680
WIRE 384 -48 304 -48
WIRE 384 -16 304 -16
WIRE -96 112 -192 112
WIRE -64 112 -96 112
WIRE 496 112 304 112
WIRE -192 128 -192 112
WIRE -96 144 -96 112
WIRE -64 144 -96 144
WIRE 496 144 496 112
WIRE -192 272 -192 208
WIRE 112 272 112 240
WIRE 112 272 -192 272
WIRE 496 272 496 224
WIRE 496 272 112 272
WIRE -192 288 -192 272
FLAG -192 288 0
FLAG -192 112 Vin
FLAG 496 112 Vout
FLAG 384 -16 TG
FLAG 384 -48 FBX
SYMBOL voltage -192 112 R0
WINDOW 123 0 0 Left 0
WINDOW 39 0 0 Left 0
WINDOW 3 -417 -47 Left 2
SYMATTR Value PULSE(0 {Vin} 0 1m 0 100m 101m 1)
SYMATTR InstName V1
SYMBOL res 480 128 R0
SYMATTR InstName R1
SYMATTR Value {Routmin}
SYMBOL Stage_2_Buck_controller 112 160 R0
SYMATTR InstName X1
TEXT -224 312 Left 2 !.tran 0 11m 10m startup
TEXT -224 344 Left 2 !.param Vin=8 Ioutmax=2.1 Routmin=5/Ioutmax
TEXT -224 368 Left 2 !.meas heat AVG abs(I(V1)*V(Vin))-abs(I(R1)*V(Vout))
TEXT -224 392 Left 2 !.temp -20 0 25 100 150
