Version 4
SHEET 1 4452 1996
WIRE 2688 -48 2512 -48
WIRE 2512 16 2512 -48
WIRE 2416 64 1728 64
WIRE 2688 64 2688 -48
WIRE 2688 64 2608 64
WIRE 3088 64 2688 64
WIRE 2416 176 2368 176
WIRE 2672 176 2608 176
WIRE 1776 224 1744 224
WIRE 3088 240 3088 64
WIRE 3184 240 3088 240
WIRE 3088 288 3088 240
WIRE 1744 368 1744 224
WIRE 3088 464 3088 352
WIRE 3136 464 3088 464
WIRE 1744 576 1744 448
WIRE 1744 576 1680 576
WIRE 2512 576 2512 224
WIRE 2512 576 1744 576
WIRE 3088 576 3088 464
WIRE 3088 576 2512 576
WIRE 1472 752 1440 752
WIRE 1632 752 1472 752
WIRE 1808 752 1728 752
WIRE 2096 752 1808 752
WIRE 2352 752 2096 752
WIRE 2352 800 2352 752
WIRE 2704 864 2656 864
WIRE 1808 928 1808 752
WIRE 2704 928 2704 864
WIRE 2704 1040 2704 1008
WIRE 2896 1040 2704 1040
WIRE 2432 1056 2432 1024
WIRE 2704 1072 2704 1040
WIRE 1808 1136 1808 1008
WIRE 2384 1136 1808 1136
WIRE 1472 1184 1472 752
WIRE 1536 1184 1472 1184
WIRE 1680 1184 1680 816
WIRE 1680 1184 1616 1184
WIRE 2064 1200 1984 1200
WIRE 2144 1200 2064 1200
WIRE 2288 1200 2288 1024
WIRE 2288 1200 2144 1200
WIRE 2432 1200 2432 1152
WIRE 2576 1200 2432 1200
WIRE 2704 1200 2704 1152
WIRE 2704 1200 2576 1200
WIRE 1808 1216 1808 1136
WIRE 1984 1216 1984 1200
WIRE 2288 1216 2288 1200
WIRE 2704 1216 2704 1200
WIRE 1680 1232 1680 1184
WIRE 2144 1232 2144 1200
WIRE 2432 1232 2432 1200
WIRE 1760 1296 1728 1296
WIRE 1936 1296 1904 1296
WIRE 2656 1296 2624 1296
WIRE 1680 1344 1680 1296
WIRE 1680 1344 1456 1344
WIRE 1808 1344 1808 1312
WIRE 1808 1344 1680 1344
WIRE 1984 1344 1984 1312
WIRE 1984 1344 1808 1344
WIRE 2144 1344 2144 1296
WIRE 2144 1344 1984 1344
WIRE 2288 1344 2288 1296
WIRE 2288 1344 2144 1344
WIRE 2432 1344 2432 1312
WIRE 2432 1344 2288 1344
WIRE 2704 1344 2704 1312
WIRE 2704 1344 2432 1344
WIRE 1728 1392 1728 1296
WIRE 1728 1392 1456 1392
WIRE 1904 1392 1904 1296
WIRE 1904 1392 1728 1392
WIRE 2624 1392 2624 1296
WIRE 2624 1392 1904 1392
FLAG 1728 64 Vboost
IOPIN 1728 64 In
FLAG 2672 176 FBX
IOPIN 2672 176 BiDir
FLAG 1680 576 GND
IOPIN 1680 576 In
FLAG 3184 240 Vout
IOPIN 3184 240 Out
FLAG 3136 464 Gate
IOPIN 3136 464 Out
FLAG 1776 224 Vbuck
IOPIN 1776 224 Out
FLAG 2368 176 SHDN_N
IOPIN 2368 176 In
FLAG 2656 864 Vout
IOPIN 2656 864 In
FLAG 2896 1040 FBX
IOPIN 2896 1040 Out
FLAG 1440 752 Vboost
IOPIN 1440 752 In
FLAG 1456 1344 GND
IOPIN 1456 1344 In
FLAG 2096 752 Vboost_filtered
FLAG 2576 1200 Vrefext
FLAG 1456 1392 refext_n
IOPIN 1456 1392 In
FLAG 2064 1200 Vset
SYMBOL My_capacitor 3088 336 R0
SYMATTR InstName X2
SYMBOL res 2688 912 R0
SYMATTR InstName R10
SYMATTR Value {Rfb}
SYMBOL res 2688 1056 R0
SYMATTR InstName R11
SYMATTR Value 5000
SYMBOL npn 1632 816 R270
SYMATTR InstName Q2
SYMATTR Value 2N2222
SYMBOL res 1632 1168 R90
WINDOW 0 0 56 VBottom 2
WINDOW 3 32 56 VTop 2
SYMATTR InstName R5
SYMATTR Value 20
SYMBOL cap 1664 1232 R0
SYMATTR InstName C1
SYMATTR Value 10µ
SYMBOL res 2304 1312 R180
WINDOW 0 -43 67 Left 2
WINDOW 3 -73 38 Left 2
SYMATTR InstName R2
SYMATTR Value {Rref}
SYMBOL res 2416 1216 R0
SYMATTR InstName R6
SYMATTR Value 500
SYMBOL cap 2128 1232 R0
SYMATTR InstName C4
SYMATTR Value 10p
SYMBOL PowerProducts\\LT3088 2352 912 R0
SYMATTR InstName U2
SYMBOL nmos 1936 1216 R0
SYMATTR InstName M1
SYMATTR Value Si7336ADP
SYMBOL nmos 2656 1216 R0
SYMATTR InstName M2
SYMATTR Value Si7336ADP
SYMBOL nmos 1760 1216 R0
SYMATTR InstName M4
SYMATTR Value Si7336ADP
SYMBOL res 1792 912 R0
SYMATTR InstName R3
SYMATTR Value 1k
SYMBOL PowerProducts\\ADP1708 2512 128 R0
SYMATTR InstName U1
SYMBOL res 1728 352 R0
SYMATTR InstName R1
SYMATTR Value 1k
TEXT 1792 688 Left 2 ;Check the TI pdf on how to output voltages below 1.2V
TEXT 2824 960 Left 2 ;Digital Potentiometer
TEXT 1680 1488 Left 2 !.param Rref=round(  20k * Vrefext_limit   )
TEXT 1680 1512 Left 2 !.param Rfb=max(1, round( 5000*Rfb_ratio))
TEXT 2528 1416 Left 2 ;COMMENT: \nJust pass the following params\nRfb_ratio: the ratio on the 1.2V feedback resistors\nVrefext: the external voltage reference
TEXT 1680 1464 Left 2 !.param Vrefext_limit=max(0.01, min(3.3, Vrefext))
RECTANGLE Normal 3104 1024 2656 928 2
