Version 4
SHEET 1 1376 776
WIRE -464 -112 -624 -112
WIRE 176 -112 -464 -112
WIRE 768 -112 176 -112
WIRE 768 -96 768 -112
WIRE -464 -48 -464 -112
WIRE 176 0 176 -112
WIRE 576 0 496 0
WIRE 1024 0 992 0
WIRE -464 64 -464 32
WIRE -464 64 -624 64
WIRE 16 64 -464 64
WIRE 432 64 336 64
WIRE 496 64 496 0
WIRE 768 64 768 32
WIRE 768 64 496 64
WIRE 864 64 768 64
WIRE 992 64 992 0
WIRE 992 64 944 64
WIRE 1136 64 992 64
WIRE 1168 64 1136 64
WIRE 1328 64 1248 64
WIRE -464 80 -464 64
WIRE 768 96 768 64
WIRE 496 112 464 112
WIRE 992 112 992 64
WIRE 16 160 -336 160
WIRE 464 160 464 112
WIRE 464 160 336 160
WIRE 688 160 464 160
WIRE 496 208 464 208
WIRE 992 224 992 192
WIRE 1248 224 992 224
WIRE 992 240 992 224
WIRE 16 256 -240 256
WIRE 464 256 464 208
WIRE 464 256 336 256
WIRE 768 256 768 224
WIRE 768 256 464 256
WIRE 496 304 464 304
WIRE 16 352 -80 352
WIRE 464 352 464 304
WIRE 464 352 336 352
WIRE 992 352 992 320
WIRE 992 352 464 352
WIRE -80 384 -80 352
WIRE 992 400 992 352
WIRE 432 416 432 64
WIRE 1136 416 1136 64
WIRE -80 496 -80 464
WIRE -240 512 -240 256
WIRE 768 512 768 256
WIRE -336 528 -336 160
WIRE -464 640 -464 160
WIRE -464 640 -624 640
WIRE -336 640 -336 592
WIRE -336 640 -464 640
WIRE -240 640 -240 592
WIRE -240 640 -336 640
WIRE -80 640 -80 560
WIRE -80 640 -240 640
WIRE 176 640 176 416
WIRE 176 640 -80 640
WIRE 432 640 432 480
WIRE 432 640 176 640
WIRE 768 640 768 592
WIRE 768 640 432 640
WIRE 992 640 992 480
WIRE 992 640 768 640
WIRE 1136 640 1136 480
WIRE 1136 640 992 640
FLAG -624 -112 Vin
IOPIN -624 -112 In
FLAG -624 640 GND
IOPIN -624 640 In
FLAG 1024 0 Vout
IOPIN 1024 0 Out
FLAG -624 64 SHDN_N
IOPIN -624 64 In
FLAG 576 0 nMOS_drain
FLAG 496 112 nMOS_gate
FLAG 496 208 nMOS_source
FLAG 496 304 FBX
FLAG 1328 64 Vb
FLAG 1248 224 Va
SYMBOL PowerProducts\\LT3757 176 208 R0
SYMATTR InstName U1
SYMBOL res -480 -64 R0
SYMATTR InstName R1
SYMATTR Value 20k
SYMBOL res -480 64 R0
SYMATTR InstName R2
SYMATTR Value 13.7k
SYMBOL res 976 224 R0
SYMATTR InstName R3
SYMATTR Value 21k
SYMBOL res 976 384 R0
SYMATTR InstName R4
SYMATTR Value 1k
SYMBOL res 752 496 R0
SYMATTR InstName R5
SYMATTR Value 31.7m
SYMBOL res -96 368 R0
SYMATTR InstName R6
SYMATTR Value 22k
SYMBOL res -256 496 R0
SYMATTR InstName R7
SYMATTR Value 10k
SYMBOL cap -352 528 R0
SYMATTR InstName C1
SYMATTR Value 0.1µF
SYMBOL cap 416 416 R0
SYMATTR InstName C2
SYMATTR Value 4.7µ
SYMBOL cap -96 496 R0
SYMATTR InstName C4
SYMATTR Value 6.8n
SYMBOL My_NMOS 784 160 R0
SYMATTR InstName X1
SYMBOL My_zenner 896 64 R0
SYMATTR InstName X2
SYMBOL My_inductor 768 -32 R90
SYMATTR InstName X3
SYMBOL My_capacitor 1136 464 R0
SYMATTR InstName X4
SYMBOL res 976 96 R0
SYMATTR InstName R8
SYMATTR Value 50
SYMBOL res 1264 48 R90
WINDOW 0 0 56 VBottom 2
WINDOW 3 32 56 VTop 2
SYMATTR InstName R9
SYMATTR Value 1
TEXT -464 704 Left 2 ;Rsense Notes:\n    Rsense = 80mV / IL(peak). Note that there should be 20% margin as noted on the data sheet\n    Rsense = 80m / (2.1 * 1.2) = 0.080 / 2.52 = 0.0317 Ohms
