Version 4
SHEET 1 4452 1996
WIRE 2976 -112 2944 -112
WIRE 2352 -32 2000 -32
WIRE 2944 -32 2944 -112
WIRE 2944 -32 2640 -32
WIRE 2944 -16 2944 -32
WIRE 1776 64 1728 64
WIRE 2352 64 1776 64
WIRE 2688 64 2640 64
WIRE 2688 96 2688 64
WIRE 2944 96 2944 64
WIRE 2944 96 2688 96
WIRE 1776 128 1776 64
WIRE 2736 128 2688 128
WIRE 2352 160 2208 160
WIRE 2640 160 2624 160
WIRE 2688 160 2688 128
WIRE 2688 160 2640 160
WIRE 2864 160 2688 160
WIRE 1776 224 1776 208
WIRE 1872 224 1776 224
WIRE 2000 224 2000 -32
WIRE 2000 224 1872 224
WIRE 1776 240 1776 224
WIRE 2944 240 2944 224
WIRE 3040 240 2944 240
WIRE 2352 256 2304 256
WIRE 2672 256 2640 256
WIRE 1600 288 1472 288
WIRE 1712 288 1680 288
WIRE 2944 288 2944 240
WIRE 2304 336 2304 256
WIRE 2352 336 2304 336
WIRE 2672 432 2672 256
WIRE 2720 432 2672 432
WIRE 2832 432 2800 432
WIRE 2672 464 2672 432
WIRE 2832 464 2832 432
WIRE 1776 576 1776 336
WIRE 1776 576 1680 576
WIRE 2208 576 2208 160
WIRE 2208 576 1776 576
WIRE 2672 576 2672 528
WIRE 2672 576 2208 576
WIRE 2832 576 2832 528
WIRE 2832 576 2672 576
WIRE 2944 576 2944 352
WIRE 2944 576 2832 576
WIRE 1568 752 1520 752
WIRE 1968 752 1856 752
WIRE 2320 752 1968 752
WIRE 2496 752 2320 752
WIRE 2496 784 2496 752
WIRE 2912 784 2864 784
WIRE 1968 832 1968 752
WIRE 1904 848 1856 848
WIRE 2320 848 2320 752
WIRE 2400 848 2320 848
WIRE 2912 848 2912 784
WIRE 2704 880 2592 880
WIRE 2736 880 2704 880
WIRE 2400 912 2320 912
WIRE 1904 944 1904 848
WIRE 1968 944 1968 912
WIRE 1968 944 1904 944
WIRE 2912 960 2912 928
WIRE 3088 960 2912 960
WIRE 3104 960 3088 960
WIRE 2400 976 2240 976
WIRE 1968 992 1968 944
WIRE 2912 992 2912 960
WIRE 3088 1024 3088 960
WIRE 2320 1040 2320 912
WIRE 2400 1040 2320 1040
WIRE 1712 1120 1712 912
WIRE 1712 1120 1680 1120
WIRE 1968 1120 1968 1072
WIRE 1968 1120 1712 1120
WIRE 2320 1120 2320 1040
WIRE 2320 1120 1968 1120
WIRE 2432 1120 2432 1088
WIRE 2432 1120 2320 1120
WIRE 2560 1120 2560 1088
WIRE 2560 1120 2432 1120
WIRE 2736 1120 2736 880
WIRE 2912 1120 2912 1072
WIRE 2912 1120 2736 1120
WIRE 3088 1120 3088 1088
WIRE 3088 1120 3040 1120
WIRE 2240 1200 2240 976
WIRE 2240 1200 2176 1200
FLAG 1728 64 Vboost
IOPIN 1728 64 In
FLAG 2352 336 FBX
IOPIN 2352 336 BiDir
FLAG 1680 576 GND
IOPIN 1680 576 In
FLAG 3040 240 Vout
IOPIN 3040 240 Out
FLAG 2736 128 Gate
IOPIN 2736 128 Out
FLAG 2976 -112 Vbuck
IOPIN 2976 -112 Out
FLAG 1472 288 SHDN_N
IOPIN 1472 288 In
FLAG 1872 224 SHDN
FLAG 2864 784 Vout
IOPIN 2864 784 In
FLAG 3104 960 FBX
IOPIN 3104 960 Out
FLAG 2704 880 Vref_buf
FLAG 1520 752 Vboost
IOPIN 1520 752 In
FLAG 3040 1120 GND
IOPIN 3040 1120 In
FLAG 1680 1120 GND
IOPIN 1680 1120 In
FLAG 2176 1200 Sel
IOPIN 2176 1200 In
SYMBOL cap 2656 464 R0
SYMATTR InstName C2
SYMATTR Value 10p
SYMBOL res 2704 448 R270
WINDOW 0 32 56 VTop 2
WINDOW 3 0 56 VBottom 2
SYMATTR InstName R3
SYMATTR Value 7.5K
SYMBOL cap 2816 464 R0
SYMATTR InstName C3
SYMATTR Value 1000p
SYMBOL LT1575 2496 112 R0
SYMATTR InstName U1
SYMBOL My_NMOS 2960 160 R0
SYMATTR InstName X1
SYMBOL res 2928 -32 R0
SYMATTR InstName R4
SYMATTR Value 24m
SYMBOL My_capacitor 2944 336 R0
SYMATTR InstName X2
SYMBOL npn 1712 240 R0
SYMATTR InstName Q1
SYMATTR Value 2N2222
SYMBOL res 1760 112 R0
SYMATTR InstName R1
SYMATTR Value 22k
SYMBOL res 1952 816 R0
SYMATTR InstName R2
SYMATTR Value {Rref_top}
SYMBOL res 1952 976 R0
SYMATTR InstName R9
SYMATTR Value {Rref_bot}
SYMBOL res 2896 832 R0
SYMATTR InstName R10
SYMATTR Value {Rfb}
SYMBOL res 2896 976 R0
SYMATTR InstName R11
SYMATTR Value 500
SYMBOL PowerProducts\\LT3012 1712 784 R0
SYMATTR InstName U3
SYMBOL cap 3072 1024 R0
SYMATTR InstName C5
SYMATTR Value 10µ
SYMBOL res 1696 272 R90
WINDOW 0 0 56 VBottom 2
WINDOW 3 32 56 VTop 2
SYMATTR InstName R12
SYMATTR Value 5k
SYMBOL Switches\\ADG5233 2496 928 R0
SYMATTR InstName U2
TEXT 3080 -24 Left 2 ;Rsense:\nIt limits the current such that there is a\n 50mV drop on Rsense. So if we limit\nthe current to 2.1 Amps the resistor \nshould be ~24mOhms.
TEXT 2224 728 Left 2 ;Check the TI pdf on how to output voltages below 1.2V
TEXT 2152 1048 VLeft 2 ;Digital Potentiometer
TEXT 3032 880 Left 2 ;Digital Potentiometer
TEXT 1688 1440 Left 2 !.param Rref_top=round(Rdigital - Rref_bot)
TEXT 1688 1408 Left 2 !.param Rref_bot=round(Rdigital * Vrefext_limit/ 3.3)
TEXT 1688 1512 Left 2 !.param Rfb=max(1, round( 500*Rfb_ratio))
TEXT 2728 1240 Left 2 ;COMMENT: \nJust pass the following params\nRfb_ratio: the ratio on the 1.2V feedback resistors\nVrefext: the external voltage reference
TEXT 1344 -80 Left 2 ;This is to stop leakage from the SHDN signal to Vboost and Vbuck.\nMaking simulations better
TEXT 1688 1272 Left 2 !.param Rdigital=10k
TEXT 1688 1336 Left 2 !.param Vrefext_limit=max(0.01, min(3.3, Vrefext))
TEXT 1688 1304 Left 2 !.param Vrefint=1.2
RECTANGLE Normal 2080 640 1312 -128 2
RECTANGLE Normal 3312 944 2864 848 2
RECTANGLE Normal 3568 112 2912 -48 2
RECTANGLE Normal 1936 1088 2176 784 2
