Version 4
SHEET 1 984 680
WIRE -192 -80 -304 -80
WIRE 384 -48 304 -48
WIRE -304 -32 -304 -80
WIRE 384 -16 304 -16
WIRE 352 16 304 16
WIRE -192 80 -192 -80
WIRE -96 80 -192 80
WIRE -64 80 -96 80
WIRE -64 112 -192 112
WIRE 496 112 304 112
WIRE -192 128 -192 112
WIRE -96 144 -96 80
WIRE -64 144 -96 144
WIRE 496 144 496 112
WIRE -304 272 -304 48
WIRE -192 272 -192 208
WIRE -192 272 -304 272
WIRE 112 272 112 240
WIRE 112 272 -192 272
WIRE 352 272 352 16
WIRE 352 272 112 272
WIRE 496 272 496 224
WIRE 496 272 352 272
WIRE 912 272 912 256
WIRE -192 288 -192 272
FLAG -192 288 0
FLAG -192 112 Vin
FLAG 496 112 Vout
FLAG 384 -16 Gate
FLAG 384 -48 FBX
FLAG -304 -80 Vpower
SYMBOL voltage -192 112 R0
WINDOW 123 0 0 Left 0
WINDOW 39 0 0 Left 0
WINDOW 3 -349 58 Left 2
SYMATTR Value {Vwanted - Vfb_ref + 0.2}
SYMATTR InstName V1
SYMBOL Stage_3_Regulator_controller 112 160 R0
SYMATTR InstName X1
SYMBOL voltage -304 -48 R0
WINDOW 3 24 44 Left 2
WINDOW 123 0 0 Left 0
WINDOW 39 0 0 Left 0
SYMATTR Value 36
SYMATTR InstName V2
SYMBOL res 480 128 R0
SYMATTR InstName R1
SYMATTR Value 1k
TEXT -224 312 Left 2 !.tran 0 1.001m 1m startup
TEXT 512 -304 Left 2 !.param Vwanted=2.4
TEXT 512 -264 Left 2 !.step param Vfb_ref 0 2.6 0.021
TEXT 512 -224 Left 2 !.meas Vout1 AVG V(Vout)
