Version 4
SHEET 1 1236 936
WIRE 144 96 32 96
WIRE 368 96 272 96
WIRE 16 240 -32 240
WIRE 208 240 208 176
WIRE 208 240 96 240
WIRE -672 384 -736 384
WIRE -224 384 -592 384
WIRE -672 480 -736 480
WIRE -512 480 -592 480
WIRE -224 480 -224 384
WIRE -224 480 -320 480
WIRE 208 512 208 240
WIRE 256 512 208 512
WIRE -224 528 -224 480
WIRE -224 528 -320 528
WIRE -16 560 -96 560
WIRE -512 576 -608 576
WIRE -240 576 -320 576
WIRE 208 688 208 512
WIRE -224 736 -320 736
WIRE -16 736 -16 560
WIRE -16 736 -224 736
WIRE 144 736 -16 736
WIRE -224 752 -224 736
WIRE -608 864 -608 576
WIRE -608 864 -736 864
WIRE -224 864 -224 832
WIRE -224 864 -608 864
WIRE 208 864 208 784
WIRE 208 864 -224 864
FLAG 32 96 Vin
IOPIN 32 96 In
FLAG 368 96 Vout
IOPIN 368 96 Out
FLAG -32 240 Vboost
IOPIN -32 240 In
FLAG -240 576 Vin
FLAG -736 384 Sense_p
IOPIN -736 384 In
FLAG -736 480 Sense_n
IOPIN -736 480 In
FLAG -736 864 GND
IOPIN -736 864 In
FLAG -96 560 Vsense
IOPIN -96 560 Out
FLAG 256 512 Vgate
IOPIN 256 512 Out
SYMBOL My_NMOS 208 80 M270
SYMATTR InstName X1
SYMBOL OpAmps\\LTC6102 -416 592 R0
SYMATTR InstName U1
SYMBOL res -576 368 R90
WINDOW 0 0 56 VBottom 2
WINDOW 3 32 56 VTop 2
SYMATTR InstName R1
SYMATTR Value 2
SYMBOL res -576 464 R90
WINDOW 0 0 56 VBottom 2
WINDOW 3 32 56 VTop 2
SYMATTR InstName R2
SYMATTR Value 2
SYMBOL res -240 736 R0
SYMATTR InstName R3
SYMATTR Value 100k
SYMBOL res 112 224 R90
WINDOW 0 0 56 VBottom 2
WINDOW 3 32 56 VTop 2
SYMATTR InstName R4
SYMATTR Value 1k
SYMBOL npn 144 688 R0
SYMATTR InstName Q1
SYMATTR Value 2N2222
TEXT 280 240 Left 2 ;On normal operation the nMOS is operating as a low resistance component thanks\nto the 36Volts on the gate [which is generated on the step up stage]. For the\npull down transistors, they will be off if the voltage on their base is below \n0.7 volts. On the circuit on the right you can see it will activate the BJT \nif the Vout + Vdiode > Vbuck. On the circuit on the right will active the BJT\nif detect current going from Vout to Vin. The voltage on the op amp will be \nVopamp = Vsense * Rout / Rin = Isense * 0.020 * Rout / Rin \nVopamp = Isense * 0.02 * 100k / 2 = Isense * 1k. So if Isense reaches 7mA it \nwill activate the BJT and stop it.
