Version 4
SHEET 1 984 680
WIRE -192 -80 -304 -80
WIRE 384 -48 304 -48
WIRE -304 -32 -304 -80
WIRE 384 -16 304 -16
WIRE 352 16 304 16
WIRE -192 80 -192 -80
WIRE -96 80 -192 80
WIRE -64 80 -96 80
WIRE -64 112 -192 112
WIRE 496 112 304 112
WIRE -192 128 -192 112
WIRE -96 144 -96 80
WIRE -64 144 -96 144
WIRE 496 144 496 112
WIRE -304 272 -304 48
WIRE -192 272 -192 208
WIRE -192 272 -304 272
WIRE 112 272 112 240
WIRE 112 272 -192 272
WIRE 352 272 352 16
WIRE 352 272 112 272
WIRE 496 272 496 224
WIRE 496 272 352 272
WIRE 912 272 912 256
WIRE -192 288 -192 272
FLAG -192 288 0
FLAG -192 112 Vin
FLAG 496 112 Vout
FLAG 384 -16 Gate
FLAG 384 -48 FBX
FLAG -304 -80 Vpower
SYMBOL voltage -192 112 R0
WINDOW 123 0 0 Left 0
WINDOW 39 0 0 Left 0
WINDOW 3 -424 17 Left 2
SYMATTR Value PULSE(36 0 5m 5m 0 0 100m 1)
SYMATTR InstName V1
SYMBOL Stage_3_Regulator_controller 112 160 R0
SYMATTR InstName X1
SYMBOL voltage -304 -48 R0
WINDOW 3 24 44 Left 2
WINDOW 123 0 0 Left 0
WINDOW 39 0 0 Left 0
SYMATTR Value 36
SYMATTR InstName V2
SYMBOL current 496 144 R0
WINDOW 123 0 0 Left 0
WINDOW 39 0 0 Left 0
SYMATTR InstName I1
SYMATTR Value PULSE(0 2.1 5m 1m 0 8m 10m 10)
TEXT -224 312 Left 2 !.tran 10m startup
TEXT 504 -296 Left 2 !.param Vfb_ref=0 Vwanted=12
