Version 4
SHEET 1 1040 680
WIRE -208 -240 -304 -240
WIRE -16 -240 -208 -240
WIRE 80 -240 -16 -240
WIRE 336 -240 208 -240
WIRE 512 -240 464 -240
WIRE 560 -240 512 -240
WIRE 784 -240 560 -240
WIRE 832 -240 784 -240
WIRE 144 0 144 -160
WIRE 240 0 144 0
WIRE 400 0 400 -160
WIRE 400 0 240 0
WIRE -96 16 -304 16
WIRE 240 64 240 0
WIRE 784 64 784 -240
WIRE -208 96 -208 -240
WIRE 560 112 560 -240
WIRE -16 128 -16 -240
WIRE 80 128 -16 128
WIRE 512 128 512 -240
WIRE 512 128 384 128
WIRE -208 192 -208 176
WIRE -128 192 -208 192
WIRE -96 192 -96 16
WIRE 80 192 -96 192
WIRE -208 208 -208 192
WIRE -128 256 -128 192
WIRE 80 256 -128 256
WIRE 432 256 384 256
WIRE 560 256 560 192
WIRE 560 256 432 256
WIRE 432 304 432 256
WIRE 464 304 432 304
WIRE -208 320 -208 288
WIRE 80 320 -208 320
WIRE -208 336 -208 320
WIRE -208 432 -208 416
WIRE -208 432 -288 432
WIRE 240 432 240 368
WIRE 240 432 -208 432
WIRE 784 432 784 128
WIRE 784 432 240 432
FLAG -304 -240 Vin
IOPIN -304 -240 In
FLAG 832 -240 Vout
IOPIN 832 -240 Out
FLAG 464 304 FAULT_N
IOPIN 464 304 Out
FLAG -288 432 GND
IOPIN -288 432 In
FLAG -304 16 SHDN_N
IOPIN -304 16 In
SYMBOL SpecialFunctions\\LTC4367 240 288 R0
WINDOW 3 -11 -24 Center 2
SYMATTR InstName U1
SYMBOL res -224 320 R0
SYMATTR InstName R1
SYMATTR Value 2k
SYMBOL res -224 192 R0
SYMATTR InstName R2
SYMATTR Value 23k
SYMBOL res -224 80 R0
SYMATTR InstName R3
SYMATTR Value 75k
SYMBOL cap 768 64 R0
SYMATTR InstName C1
SYMATTR Value 330µ
SYMBOL My_NMOS 400 -256 M270
SYMATTR InstName X3
SYMBOL My_NMOS 144 -256 R270
SYMATTR InstName X4
SYMBOL res 544 96 R0
SYMATTR InstName R7
SYMATTR Value 10k
