Version 4
SHEET 1 1032 680
WIRE -192 -80 -304 -80
WIRE 384 -48 304 -48
WIRE -304 -32 -304 -80
WIRE 384 -16 304 -16
WIRE -192 80 -192 -80
WIRE -96 80 -192 80
WIRE -64 80 -96 80
WIRE -64 112 -192 112
WIRE 496 112 304 112
WIRE -192 128 -192 112
WIRE -96 144 -96 80
WIRE -64 144 -96 144
WIRE 496 144 496 112
WIRE -304 272 -304 48
WIRE -192 272 -192 208
WIRE -192 272 -304 272
WIRE 112 272 112 240
WIRE 112 272 -192 272
WIRE 496 272 496 224
WIRE 496 272 112 272
WIRE -192 288 -192 272
FLAG -192 288 0
FLAG -192 112 Vbuck
FLAG 496 112 Vout
FLAG 384 -16 Gate
FLAG 384 -48 FBX
FLAG -304 -80 Vboost
SYMBOL voltage -304 -48 R0
WINDOW 123 0 0 Left 0
WINDOW 39 0 0 Left 0
WINDOW 3 -530 -21 Left 2
SYMATTR Value PULSE(0 {Vboost} 0 1m 0 100m 101m 1)
SYMATTR InstName V1
SYMBOL res 480 128 R0
SYMATTR InstName R1
SYMATTR Value {Routmin}
SYMBOL Stage_3_Regulator_controller 112 160 R0
SYMATTR InstName X1
SYMATTR SpiceLine Vextfb=0 Vfb_ratio=10
SYMBOL voltage -192 112 R0
WINDOW 3 -417 96 Left 2
WINDOW 123 0 0 Left 0
WINDOW 39 0 0 Left 0
SYMATTR Value SINE({Vbuck} 0.1 1000 0 0 0 100)
SYMATTR InstName V2
TEXT -304 344 Left 2 !.tran 0 100m 5m startup uic
TEXT -304 368 Left 2 !.param Vwanted=18 Vboost=3+Vwanted Vbuck=0.1+Vwanted
TEXT -304 392 Left 2 !.param Ioutmax=2.1 Routmin=Vwanted/Ioutmax
