Version 4
SHEET 1 968 680
WIRE 560 128 544 128
WIRE 608 176 608 144
FLAG 608 -176 Vin
SYMBOL nmos 560 48 R0
SYMATTR InstName M1
SYMATTR Value IRF6644
SYMBOL res 592 192 R0
SYMATTR InstName R1
SYMATTR Value 35m
SYMBOL ind 592 -128 R0
SYMATTR InstName L1
SYMBOL diode 784 32 R270
WINDOW 0 32 32 VTop 2
WINDOW 3 0 32 VBottom 2
SYMATTR InstName D1
SYMBOL cap 912 224 R0
SYMATTR InstName C1
SYMBOL cap 432 224 R0
SYMATTR InstName C2
SYMBOL cap 288 224 R0
SYMATTR InstName C3
SYMBOL cap 208 224 R0
SYMATTR InstName C4
SYMBOL cap -400 240 R0
SYMATTR InstName C5
SYMBOL cap -496 240 R0
SYMATTR InstName C6
SYMBOL res -400 80 R0
SYMATTR InstName R2
SYMBOL res -656 208 R0
SYMATTR InstName R3
SYMBOL res -656 64 R0
SYMATTR InstName R4
