Version 4
SHEET 1 880 680
WIRE -80 -128 -256 -128
WIRE 416 -128 160 -128
WIRE 416 -112 416 -128
WIRE -256 -96 -256 -128
WIRE 224 -96 160 -96
WIRE 224 -64 160 -64
WIRE 224 -32 160 -32
WIRE 416 0 416 -32
WIRE -256 16 -256 -16
WIRE 32 32 32 0
FLAG -256 16 0
FLAG 32 32 0
FLAG -256 -128 Vin
FLAG 416 0 0
FLAG 224 -96 Vgate
FLAG 224 -64 status_n
FLAG 224 -32 fault_n
FLAG 416 -128 Vout
SYMBOL Diode_controller 48 -96 R0
SYMATTR InstName X1
SYMBOL voltage -256 -112 R0
WINDOW 123 0 0 Left 0
WINDOW 39 0 0 Left 0
SYMATTR InstName V1
SYMATTR Value 5
SYMBOL current 416 -112 R0
WINDOW 123 0 0 Left 0
WINDOW 39 0 0 Left 0
SYMATTR InstName I1
SYMATTR Value 15
TEXT -290 56 Left 2 !.tran 0 20m 0 10u startup
