Version 4
SHEET 1 880 680
WIRE 16 -112 -304 -112
WIRE 128 -112 16 -112
WIRE 192 -112 128 -112
WIRE 352 -112 288 -112
WIRE 608 -112 352 -112
WIRE -80 -64 -96 -64
WIRE 16 -64 16 -112
WIRE 16 -64 -16 -64
WIRE 208 -16 208 -64
WIRE 240 -16 208 -16
WIRE 608 -16 240 -16
WIRE -96 32 -96 -64
WIRE 16 32 16 -64
WIRE 128 32 128 -112
WIRE 240 32 240 -16
WIRE 352 32 352 -112
WIRE -160 96 -304 96
WIRE -304 176 -304 96
WIRE -160 176 -304 176
WIRE 608 176 416 176
WIRE -304 192 -304 176
WIRE -160 256 -224 256
WIRE 608 256 416 256
WIRE -224 336 -224 256
WIRE -160 336 -224 336
WIRE -304 432 -304 256
WIRE -304 432 -336 432
WIRE -224 432 -224 336
WIRE -224 432 -304 432
WIRE 128 432 128 368
WIRE 128 432 -224 432
FLAG -304 -112 Vin
IOPIN -304 -112 In
FLAG 608 -112 Vout
IOPIN 608 -112 Out
FLAG 608 176 status_n
IOPIN 608 176 Out
FLAG 608 256 fault_n
IOPIN 608 256 Out
FLAG 608 -16 Vgate
IOPIN 608 -16 Out
FLAG -336 432 GND
IOPIN -336 432 In
SYMBOL SpecialFunctions\\LTC4352 128 208 R0
SYMATTR InstName U1
SYMBOL cap -320 192 R0
SYMATTR InstName C1
SYMATTR Value 0.1µ
SYMBOL cap -16 -80 R90
WINDOW 0 0 32 VBottom 2
WINDOW 3 32 32 VTop 2
SYMATTR InstName C2
SYMATTR Value 0.1µ
SYMBOL nmos 288 -64 M270
SYMATTR InstName M1
SYMATTR Value IRF6644
