Version 4
SHEET 1 880 680
WIRE -1072 -640 -1168 -640
WIRE -720 -640 -816 -640
WIRE -1072 -576 -1168 -576
WIRE -720 -576 -816 -576
WIRE -1072 -512 -1168 -512
WIRE -720 -512 -816 -512
WIRE 528 -512 528 -528
WIRE -720 -448 -816 -448
WIRE 528 -432 528 -448
WIRE 192 -384 192 -416
WIRE 240 -384 240 -416
WIRE 240 -384 192 -384
WIRE 128 -336 128 -384
WIRE -464 -320 -512 -320
WIRE 192 -320 192 -384
WIRE 192 -320 160 -320
WIRE -464 -304 -464 -320
WIRE -176 -304 -304 -304
WIRE -112 -304 -176 -304
WIRE 32 -304 32 -384
WIRE 32 -304 -32 -304
WIRE 96 -304 32 -304
WIRE 224 -288 160 -288
WIRE 352 -288 304 -288
WIRE -304 -256 -304 -304
WIRE 128 -224 128 -272
WIRE 160 -224 128 -224
WIRE -560 -208 -560 -256
WIRE -336 -208 -368 -208
WIRE -512 -192 -512 -320
WIRE -512 -192 -528 -192
WIRE -464 -192 -464 -224
WIRE -368 -192 -368 -208
WIRE -368 -192 -464 -192
WIRE -592 -176 -832 -176
WIRE 256 -176 -192 -176
WIRE 352 -176 256 -176
WIRE -512 -160 -528 -160
WIRE -368 -160 -512 -160
WIRE -368 -144 -368 -160
WIRE -336 -144 -368 -144
WIRE 656 -128 656 -176
WIRE -176 -96 -176 -304
WIRE -176 -96 -256 -96
WIRE 256 -96 256 -112
WIRE 352 -96 256 -96
WIRE -512 -80 -512 -160
WIRE -176 -32 -176 -96
WIRE 656 -32 656 -64
WIRE 352 -16 256 -16
WIRE 256 0 256 -16
WIRE -560 80 -560 -144
WIRE -512 80 -512 0
WIRE -512 80 -560 80
WIRE -304 80 -304 -96
WIRE -304 80 -512 80
WIRE -176 80 -176 32
WIRE -176 80 -304 80
WIRE 256 80 -176 80
WIRE 352 80 256 80
WIRE -464 176 -464 -192
WIRE 160 176 -464 176
FLAG 352 -288 D
IOPIN 352 -288 Out
FLAG 352 -176 G
IOPIN 352 -176 Out
FLAG 352 -96 S
IOPIN 352 -96 Out
FLAG 352 -16 5V_FB
IOPIN 352 -16 Out
FLAG 160 176 EA
IOPIN 160 176 In
FLAG -832 -176 FLAG
IOPIN -832 -176 Out
FLAG -720 -576 C1_p
IOPIN -720 -576 BiDir
FLAG -1168 -640 C1_n
IOPIN -1168 -640 BiDir
FLAG -1168 -576 C2_p
IOPIN -1168 -576 BiDir
FLAG -1168 -512 C2_n
IOPIN -1168 -512 BiDir
FLAG 192 -416 Vdd
IOPIN 192 -416 In
FLAG 240 -416 Vdd
FLAG 352 80 GND
IOPIN 352 80 BiDir
FLAG -560 80 mygnd
FLAG -720 -512 Vdd
FLAG -720 -448 mygnd
FLAG -720 -640 Vdouble
FLAG 528 -528 Vdouble
FLAG 528 -432 mygnd
FLAG 160 -224 mygnd
FLAG -560 -256 Vdd
FLAG 256 -176 G
FLAG 128 -384 Vdouble
FLAG 32 -384 Vlimit
IOPIN 32 -384 Out
FLAG 656 -176 G
IOPIN 656 -176 Out
FLAG 656 -32 GND
IOPIN 656 -32 BiDir
SYMBOL voltage -512 -96 R0
WINDOW 123 0 0 Left 0
WINDOW 39 0 0 Left 0
SYMATTR InstName V1
SYMATTR Value 1.235
SYMBOL voltage 208 -288 M90
WINDOW 0 -32 56 VBottom 2
WINDOW 3 32 56 VTop 2
WINDOW 123 0 0 Left 0
WINDOW 39 0 0 Left 0
SYMATTR InstName V2
SYMATTR Value 35m
SYMBOL zener 240 -112 M180
WINDOW 0 -47 43 Left 2
WINDOW 3 -97 10 Left 2
SYMATTR InstName D1
SYMATTR Value KDZ16B
SYMBOL res 240 -112 R0
SYMATTR InstName R1
SYMATTR Value 32k
SYMBOL res 240 -16 R0
SYMATTR InstName R2
SYMATTR Value 10k
SYMBOL PowerProducts\\LT1026 -944 -544 R0
SYMATTR InstName U4
SYMBOL cap 512 -512 R0
SYMATTR InstName C1
SYMATTR Value 0.1µ
SYMBOL voltage -464 -320 R0
WINDOW 123 0 0 Left 0
WINDOW 39 0 0 Left 0
SYMATTR InstName V3
SYMATTR Value 75m
SYMBOL OpAmps\\OP07 -560 -240 M0
SYMATTR InstName U2
SYMBOL OpAmps\\OP07 128 -368 M0
SYMATTR InstName U3
SYMBOL OpAmps\\LTC6228 -304 -176 R0
SYMATTR InstName U5
SYMBOL res -16 -320 R90
WINDOW 0 0 56 VBottom 2
WINDOW 3 32 56 VTop 2
SYMATTR InstName R4
SYMATTR Value 10
SYMBOL cap 640 -128 R0
SYMATTR InstName C3
SYMATTR Value 0.1µ
SYMBOL cap -192 -32 R0
SYMATTR InstName C2
SYMATTR Value 1µ
