Version 4
SHEET 1 1008 680
WIRE 192 -128 144 -128
WIRE 288 -128 240 -128
WIRE 608 -96 608 -176
WIRE 608 32 608 -16
WIRE 608 32 512 32
WIRE 720 32 608 32
WIRE 144 48 144 -64
WIRE 192 48 192 -128
WIRE 240 48 240 -64
WIRE 288 48 288 -128
WIRE 608 48 608 32
WIRE -144 80 -144 48
WIRE -144 80 -160 80
WIRE 80 80 -144 80
WIRE 512 80 512 32
WIRE 512 80 432 80
WIRE -144 128 -144 80
WIRE 80 128 -32 128
WIRE 544 128 544 96
WIRE 544 128 432 128
WIRE 560 128 544 128
WIRE 80 176 -32 176
WIRE 608 176 608 144
WIRE 608 176 432 176
WIRE 800 176 608 176
WIRE 848 176 800 176
WIRE 912 176 848 176
WIRE 608 192 608 176
WIRE -144 240 -144 208
WIRE 608 272 608 256
WIRE 608 272 432 272
WIRE 800 272 800 256
WIRE 800 272 608 272
WIRE 912 272 912 256
WIRE 960 272 912 272
WIRE 976 272 960 272
WIRE 912 288 912 272
WIRE 800 304 800 272
WIRE 528 320 432 320
WIRE 912 400 912 368
FLAG -144 48 Vin
FLAG 800 304 0
FLAG -144 240 0
FLAG 544 96 Vgate
FLAG 912 400 0
FLAG 960 272 FB
FLAG 528 320 FB
FLAG 848 176 Vout
FLAG -32 128 Vlimit
FLAG 720 32 Vd
FLAG 608 -176 Vin
SYMBOL cap 128 -128 R0
SYMATTR InstName C1
SYMATTR Value 0.1µF
SYMBOL cap 224 -128 R0
SYMATTR InstName C2
SYMATTR Value 0.1µF
SYMBOL nmos 560 48 R0
SYMATTR InstName M1
SYMATTR Value IRF6644
SYMBOL res 592 -112 R0
SYMATTR InstName Rsense
SYMATTR Value 35m
SYMBOL cap 592 192 R0
SYMATTR InstName C3
SYMATTR Value 0.1µ
SYMBOL res 784 160 R0
SYMATTR InstName Rload
SYMATTR Value 1
SYMBOL voltage -144 112 R0
WINDOW 123 0 0 Left 0
WINDOW 39 0 0 Left 0
SYMATTR InstName V1
SYMATTR Value 20
SYMBOL MIC5158 304 160 R0
SYMATTR InstName X1
SYMBOL res 896 160 R0
SYMATTR InstName R3
SYMATTR Value 3800
SYMBOL res 896 272 R0
SYMATTR InstName R4
SYMATTR Value 1235
TEXT -176 360 Left 2 !.tran 0 10m 0 10u
