Version 4
SHEET 1 880 680
WIRE 192 -128 144 -128
WIRE 288 -128 240 -128
WIRE 608 16 608 -176
WIRE 608 16 512 16
WIRE 656 16 608 16
WIRE 144 48 144 -64
WIRE 192 48 192 -128
WIRE 240 48 240 -64
WIRE 288 48 288 -128
WIRE 608 48 608 16
WIRE -144 80 -144 48
WIRE -144 80 -160 80
WIRE 80 80 -144 80
WIRE 512 80 512 16
WIRE 512 80 432 80
WIRE -144 128 -144 80
WIRE -32 128 -32 112
WIRE 80 128 -32 128
WIRE 544 128 544 96
WIRE 544 128 432 128
WIRE 560 128 544 128
WIRE 80 176 -32 176
WIRE 608 176 608 144
WIRE 608 176 432 176
WIRE 768 176 608 176
WIRE 800 176 768 176
WIRE 608 192 608 176
WIRE 528 224 432 224
WIRE -144 240 -144 208
WIRE 608 272 608 256
WIRE 608 272 432 272
WIRE 800 272 800 256
WIRE 800 272 608 272
WIRE 800 304 800 272
WIRE 528 320 528 224
WIRE 528 320 432 320
FLAG -144 48 Vin
FLAG 608 -176 Vin
FLAG 800 304 0
FLAG -144 240 0
FLAG 768 176 Vout
FLAG 544 96 Vgate
FLAG -32 112 Vlimit
FLAG 656 16 Vd
SYMBOL cap 128 -128 R0
SYMATTR InstName C1
SYMATTR Value 0.1µF
SYMBOL cap 224 -128 R0
SYMATTR InstName C2
SYMATTR Value 0.1µF
SYMBOL nmos 560 48 R0
SYMATTR InstName M1
SYMATTR Value IRF6644
SYMBOL cap 592 192 R0
SYMATTR InstName C3
SYMATTR Value 10µ
SYMBOL res 784 160 R0
SYMATTR InstName R2
SYMATTR Value 1000
SYMBOL voltage -144 112 R0
WINDOW 123 0 0 Left 0
WINDOW 39 0 0 Left 0
SYMATTR InstName V1
SYMATTR Value 10
SYMBOL MIC5158 304 160 R0
SYMATTR InstName X1
TEXT -176 360 Left 2 !.tran 0 10m 0 10u startup
