Version 4
SHEET 1 880 680
WIRE 608 -176 512 -176
WIRE 192 -128 144 -128
WIRE 288 -128 240 -128
WIRE 608 -96 608 -176
WIRE 144 48 144 -64
WIRE 192 48 192 -128
WIRE 240 48 240 -64
WIRE 288 48 288 -128
WIRE 608 48 608 -16
WIRE -144 80 -144 48
WIRE -144 80 -160 80
WIRE 80 80 -144 80
WIRE 512 80 512 -176
WIRE 512 80 432 80
WIRE 80 128 -32 128
WIRE 544 128 544 96
WIRE 544 128 432 128
WIRE 560 128 544 128
WIRE 80 176 -32 176
WIRE 608 176 608 144
WIRE 608 176 432 176
WIRE 768 176 608 176
WIRE 608 192 608 176
WIRE 608 272 608 256
WIRE 608 272 432 272
WIRE 768 272 608 272
WIRE 528 320 432 320
FLAG -160 80 Vin
IOPIN -160 80 In
FLAG -144 48 Vin
FLAG 528 320 FB
IOPIN 528 320 Out
FLAG 608 -176 Vin
FLAG 768 176 Vout
IOPIN 768 176 Out
FLAG 544 96 Vgate
IOPIN 544 96 Out
FLAG 768 272 GND
IOPIN 768 272 In
FLAG -32 176 FLAG
IOPIN -32 176 Out
SYMBOL MIC5158 304 160 R0
SYMATTR InstName X1
SYMBOL cap 128 -128 R0
SYMATTR InstName C1
SYMATTR Value 0.1µF
SYMBOL cap 224 -128 R0
SYMATTR InstName C2
SYMATTR Value 0.1µF
SYMBOL nmos 560 48 R0
SYMATTR InstName M1
SYMATTR Value IRF6644
SYMBOL res 592 -112 R0
SYMATTR InstName R1
SYMATTR Value 35m
SYMBOL cap 592 192 R0
SYMATTR InstName C3
SYMATTR Value 10µ
