Version 4
SHEET 1 880 680
WIRE 32 80 -208 80
WIRE 432 80 272 80
WIRE 576 80 432 80
WIRE 432 96 432 80
WIRE -208 112 -208 80
WIRE 576 112 576 80
WIRE 32 128 -96 128
WIRE 352 128 352 112
WIRE 352 128 272 128
WIRE 432 176 272 176
WIRE 432 192 432 176
WIRE -208 224 -208 192
WIRE 576 224 576 192
WIRE 144 272 144 240
WIRE 432 288 432 272
FLAG -208 224 0
FLAG 576 224 0
FLAG 432 288 0
FLAG 352 112 Vgate
FLAG 576 80 Vout
FLAG -208 80 Vin
FLAG -96 128 FLAG
FLAG 144 272 0
SYMBOL Regulator_controller 208 96 R0
SYMATTR InstName X1
SYMBOL voltage -208 96 R0
WINDOW 123 0 0 Left 0
WINDOW 39 0 0 Left 0
SYMATTR InstName V1
SYMATTR Value 10
SYMBOL res 560 96 R0
SYMATTR InstName R1
SYMATTR Value 50
SYMBOL res 416 80 R0
SYMATTR InstName R2
SYMATTR Value 3800
SYMBOL res 416 176 R0
SYMATTR InstName R3
SYMATTR Value 1225
TEXT -242 312 Left 2 !.tran 0 10m 0 10u
