Version 4
SHEET 1 1108 680
WIRE -1728 -192 -1888 -192
WIRE -1456 -192 -1648 -192
WIRE -592 -128 -832 -128
WIRE -400 -128 -592 -128
WIRE -592 -96 -592 -128
WIRE -400 -96 -400 -128
WIRE -1888 -80 -1888 -192
WIRE -1888 -80 -2080 -80
WIRE -1824 -80 -1888 -80
WIRE -1456 -80 -1456 -192
WIRE -1456 -80 -1536 -80
WIRE -832 -64 -832 -128
WIRE -1888 0 -1888 -80
WIRE -1824 0 -1888 0
WIRE -1280 0 -1536 0
WIRE -1136 0 -1280 0
WIRE -1040 0 -1136 0
WIRE -976 0 -1040 0
WIRE -592 0 -592 -32
WIRE -592 0 -688 0
WIRE -544 0 -592 0
WIRE -400 0 -400 -32
WIRE -400 0 -464 0
WIRE -192 0 -400 0
WIRE 128 0 64 0
WIRE 224 0 128 0
WIRE 336 0 224 0
WIRE 128 16 128 0
WIRE 224 16 224 0
WIRE 336 16 336 0
WIRE -2080 64 -2080 -80
WIRE -592 64 -592 0
WIRE -1888 80 -1888 0
WIRE -1824 80 -1888 80
WIRE -1456 80 -1536 80
WIRE -1376 80 -1456 80
WIRE -1040 80 -1040 0
WIRE -976 80 -1040 80
WIRE -64 128 -64 96
WIRE 128 128 128 96
WIRE 128 128 -64 128
WIRE 128 144 128 128
WIRE -1888 160 -1888 80
WIRE -1824 160 -1888 160
WIRE -1456 160 -1536 160
WIRE -1376 160 -1376 80
WIRE -1280 160 -1280 0
WIRE -976 160 -1040 160
WIRE -528 160 -688 160
WIRE -496 160 -528 160
WIRE -400 160 -400 0
WIRE -400 160 -416 160
WIRE -1136 192 -1136 0
WIRE -1040 192 -1040 160
WIRE -1888 208 -1888 160
WIRE -1456 208 -1456 160
WIRE -528 208 -528 160
WIRE -400 208 -400 160
WIRE -2080 320 -2080 144
WIRE -1888 320 -1888 272
WIRE -1888 320 -2080 320
WIRE -1680 320 -1680 208
WIRE -1680 320 -1888 320
WIRE -1456 320 -1456 288
WIRE -1456 320 -1680 320
WIRE -1376 320 -1376 224
WIRE -1376 320 -1456 320
WIRE -1280 320 -1280 224
WIRE -1280 320 -1376 320
WIRE -1136 320 -1136 256
WIRE -1136 320 -1280 320
WIRE -1040 320 -1040 256
WIRE -1040 320 -1136 320
WIRE -832 320 -832 224
WIRE -832 320 -1040 320
WIRE -592 320 -592 128
WIRE -592 320 -832 320
WIRE -528 320 -528 288
WIRE -528 320 -592 320
WIRE -400 320 -400 272
WIRE -400 320 -528 320
WIRE 128 320 128 224
WIRE 128 320 -400 320
WIRE 224 320 224 80
WIRE 224 320 128 320
WIRE 336 320 336 96
WIRE 336 320 224 320
WIRE 336 384 336 320
FLAG 336 384 0
SYMBOL PowerProducts\\LT1117 -64 0 R0
SYMATTR InstName U1
SYMBOL polcap 208 16 R0
WINDOW 3 24 56 Left 2
SYMATTR Value 10µ
SYMATTR InstName C1
SYMATTR Description Capacitor
SYMATTR Type cap
SYMATTR SpiceLine V=33 Irms=0 Rser=0.3 Lser=0 mfg="KEMET" pn="T495D106M035AS" type="Tantalum"
SYMBOL voltage -2080 48 R0
SYMATTR InstName V1
SYMATTR Value 4.25
SYMBOL res 112 0 R0
SYMATTR InstName R2
SYMATTR Value 121
SYMBOL res 112 128 R0
SYMATTR InstName R3
SYMATTR Value 154
SYMBOL current 336 16 R0
WINDOW 123 0 0 Left 0
WINDOW 39 0 0 Left 0
SYMATTR InstName I1
SYMATTR Value 10
SYMBOL PowerProducts\\LT1578 -832 80 R0
SYMATTR InstName U2
SYMBOL cap -608 -96 R0
SYMATTR InstName C2
SYMATTR Value 33µ
SYMBOL cap -416 208 R0
SYMATTR InstName C3
SYMATTR Value 10µ
SYMBOL cap -1056 192 R0
SYMATTR InstName C4
SYMATTR Value 100p
SYMBOL cap -1152 192 R0
WINDOW 3 44 42 Left 2
SYMATTR InstName C5
SYMATTR Value 10µ
SYMBOL schottky -576 128 R180
WINDOW 0 24 64 Left 2
WINDOW 3 -89 64 Left 2
SYMATTR InstName D1
SYMATTR Value 1N5818
SYMATTR Description Zener Diode
SYMATTR Type zener
SYMBOL diode -384 -32 R180
WINDOW 0 24 64 Left 2
WINDOW 3 -75 62 Left 2
SYMATTR InstName D2
SYMATTR Value 1N914
SYMBOL res -400 144 R90
WINDOW 0 0 56 VBottom 2
WINDOW 3 32 56 VTop 2
SYMATTR InstName R4
SYMATTR Value 8.6K
SYMBOL res -544 192 R0
SYMATTR InstName R5
SYMATTR Value 5K
SYMBOL ind -560 16 R270
WINDOW 0 -17 35 VTop 2
WINDOW 3 9 90 VBottom 2
SYMATTR InstName L1
SYMATTR Value 15µH
SYMBOL PowerProducts\\LT3473 -1680 64 R0
SYMATTR InstName U3
SYMBOL ind -1744 -176 R270
WINDOW 0 32 56 VTop 2
WINDOW 3 5 56 VBottom 2
SYMATTR InstName L2
SYMATTR Value 6.8µ
SYMBOL cap -1392 160 R0
SYMATTR InstName C6
SYMATTR Value .47µ
SYMBOL cap -1904 208 R0
WINDOW 3 39 54 Left 2
SYMATTR InstName C7
SYMATTR Value 4.7µ
SYMBOL res -1472 64 R0
SYMATTR InstName R1
SYMATTR Value 2000k
SYMBOL res -1472 192 R0
SYMATTR InstName R6
SYMATTR Value 100k
SYMBOL cap -1296 160 R0
SYMATTR InstName C8
SYMATTR Value 2.2µ
TEXT 296 192 Left 2 !.tran 300u
